<?xml version="1.0" encoding="UTF-8"?>

<!-- generated on 2025-11-22 03:10:34 by Eclipse SUMO netconvert Version 1.24.0
<netconvertConfiguration xmlns:xsi="http://www.w3.org/2001/XMLSchema-instance" xsi:noNamespaceSchemaLocation="http://sumo.dlr.de/xsd/netconvertConfiguration.xsd">

    <input>
        <node-files value="nodes.nod.xml"/>
        <edge-files value="edges.edg.xml"/>
    </input>

    <output>
        <output-file value="net.net.xml"/>
    </output>

    <junctions>
        <no-turnarounds value="true"/>
    </junctions>

</netconvertConfiguration>
-->

<net version="1.20" junctionCornerDetail="5" limitTurnSpeed="5.50" xmlns:xsi="http://www.w3.org/2001/XMLSchema-instance" xsi:noNamespaceSchemaLocation="http://sumo.dlr.de/xsd/net_file.xsd">

    <location netOffset="0.00,0.00" convBoundary="0.00,0.00,400.00,400.00" origBoundary="0.00,0.00,400.00,400.00" projParameter="!"/>

    <edge id=":J1_0" function="internal">
        <lane id=":J1_0_0" index="0" speed="6.51" length="9.03" shape="185.60,220.00 185.25,217.55 184.20,215.80 182.45,214.75 180.00,214.40"/>
        <lane id=":J1_0_1" index="1" speed="7.33" length="11.73" shape="185.60,220.00 185.25,216.15 184.20,213.40 182.45,211.75 180.00,211.20"/>
    </edge>
    <edge id=":J1_2" function="internal">
        <lane id=":J1_2_0" index="0" speed="13.90" length="40.00" shape="185.60,220.00 185.60,180.00"/>
        <lane id=":J1_2_1" index="1" speed="13.90" length="40.00" shape="188.80,220.00 188.80,180.00"/>
        <lane id=":J1_2_2" index="2" speed="13.90" length="40.00" shape="192.00,220.00 192.00,180.00"/>
        <lane id=":J1_2_3" index="3" speed="13.90" length="40.00" shape="195.20,220.00 195.20,180.00"/>
        <lane id=":J1_2_4" index="4" speed="13.90" length="40.00" shape="198.40,220.00 198.40,180.00"/>
    </edge>
    <edge id=":J1_7" function="internal">
        <lane id=":J1_7_0" index="0" speed="12.72" length="5.73" shape="198.40,220.00 199.11,214.32"/>
        <lane id=":J1_7_1" index="1" speed="12.28" length="5.01" shape="198.40,220.00 199.11,215.04"/>
    </edge>
    <edge id=":J1_36" function="internal">
        <lane id=":J1_36_0" index="0" speed="12.72" length="31.73" shape="199.11,214.32 199.75,209.15 203.80,201.40 210.55,196.75 220.00,195.20"/>
        <lane id=":J1_36_1" index="0" speed="12.28" length="29.82" shape="199.11,215.04 199.75,210.55 203.80,203.80 210.55,199.75 220.00,198.40"/>
    </edge>
    <edge id=":J1_9" function="internal">
        <lane id=":J1_9_0" index="0" speed="6.51" length="9.03" shape="220.00,214.40 217.55,214.75 215.80,215.80 214.75,217.55 214.40,220.00"/>
        <lane id=":J1_9_1" index="1" speed="7.33" length="11.73" shape="220.00,214.40 216.15,214.75 213.40,215.80 211.75,217.55 211.20,220.00"/>
    </edge>
    <edge id=":J1_11" function="internal">
        <lane id=":J1_11_0" index="0" speed="13.90" length="40.00" shape="220.00,214.40 180.00,214.40"/>
        <lane id=":J1_11_1" index="1" speed="13.90" length="40.00" shape="220.00,211.20 180.00,211.20"/>
        <lane id=":J1_11_2" index="2" speed="13.90" length="40.00" shape="220.00,208.00 180.00,208.00"/>
        <lane id=":J1_11_3" index="3" speed="13.90" length="40.00" shape="220.00,204.80 180.00,204.80"/>
        <lane id=":J1_11_4" index="4" speed="13.90" length="40.00" shape="220.00,201.60 180.00,201.60"/>
    </edge>
    <edge id=":J1_16" function="internal">
        <lane id=":J1_16_0" index="0" speed="12.72" length="5.73" shape="220.00,201.60 214.32,200.89"/>
        <lane id=":J1_16_1" index="1" speed="12.28" length="5.01" shape="220.00,201.60 215.04,200.89"/>
    </edge>
    <edge id=":J1_37" function="internal">
        <lane id=":J1_37_0" index="0" speed="12.72" length="31.73" shape="214.32,200.89 209.15,200.25 201.40,196.20 196.75,189.45 195.20,180.00"/>
        <lane id=":J1_37_1" index="0" speed="12.28" length="29.82" shape="215.04,200.89 210.55,200.25 203.80,196.20 199.75,189.45 198.40,180.00"/>
    </edge>
    <edge id=":J1_18" function="internal">
        <lane id=":J1_18_0" index="0" speed="6.51" length="9.03" shape="214.40,180.00 214.75,182.45 215.80,184.20 217.55,185.25 220.00,185.60"/>
        <lane id=":J1_18_1" index="1" speed="7.33" length="11.73" shape="214.40,180.00 214.75,183.85 215.80,186.60 217.55,188.25 220.00,188.80"/>
    </edge>
    <edge id=":J1_20" function="internal">
        <lane id=":J1_20_0" index="0" speed="13.90" length="40.00" shape="214.40,180.00 214.40,220.00"/>
        <lane id=":J1_20_1" index="1" speed="13.90" length="40.00" shape="211.20,180.00 211.20,220.00"/>
        <lane id=":J1_20_2" index="2" speed="13.90" length="40.00" shape="208.00,180.00 208.00,220.00"/>
        <lane id=":J1_20_3" index="3" speed="13.90" length="40.00" shape="204.80,180.00 204.80,220.00"/>
        <lane id=":J1_20_4" index="4" speed="13.90" length="40.00" shape="201.60,180.00 201.60,220.00"/>
    </edge>
    <edge id=":J1_25" function="internal">
        <lane id=":J1_25_0" index="0" speed="12.72" length="5.73" shape="201.60,180.00 200.89,185.68"/>
        <lane id=":J1_25_1" index="1" speed="12.28" length="5.01" shape="201.60,180.00 200.89,184.96"/>
    </edge>
    <edge id=":J1_38" function="internal">
        <lane id=":J1_38_0" index="0" speed="12.72" length="31.73" shape="200.89,185.68 200.25,190.85 196.20,198.60 189.45,203.25 180.00,204.80"/>
        <lane id=":J1_38_1" index="0" speed="12.28" length="29.82" shape="200.89,184.96 200.25,189.45 196.20,196.20 189.45,200.25 180.00,201.60"/>
    </edge>
    <edge id=":J1_27" function="internal">
        <lane id=":J1_27_0" index="0" speed="6.51" length="9.03" shape="180.00,185.60 182.45,185.25 184.20,184.20 185.25,182.45 185.60,180.00"/>
        <lane id=":J1_27_1" index="1" speed="7.33" length="11.73" shape="180.00,185.60 183.85,185.25 186.60,184.20 188.25,182.45 188.80,180.00"/>
    </edge>
    <edge id=":J1_29" function="internal">
        <lane id=":J1_29_0" index="0" speed="13.90" length="40.00" shape="180.00,185.60 220.00,185.60"/>
        <lane id=":J1_29_1" index="1" speed="13.90" length="40.00" shape="180.00,188.80 220.00,188.80"/>
        <lane id=":J1_29_2" index="2" speed="13.90" length="40.00" shape="180.00,192.00 220.00,192.00"/>
        <lane id=":J1_29_3" index="3" speed="13.90" length="40.00" shape="180.00,195.20 220.00,195.20"/>
        <lane id=":J1_29_4" index="4" speed="13.90" length="40.00" shape="180.00,198.40 220.00,198.40"/>
    </edge>
    <edge id=":J1_34" function="internal">
        <lane id=":J1_34_0" index="0" speed="12.72" length="5.73" shape="180.00,198.40 185.68,199.11"/>
        <lane id=":J1_34_1" index="1" speed="12.28" length="5.01" shape="180.00,198.40 184.96,199.11"/>
    </edge>
    <edge id=":J1_39" function="internal">
        <lane id=":J1_39_0" index="0" speed="12.72" length="31.73" shape="185.68,199.11 190.85,199.75 198.60,203.80 203.25,210.55 204.80,220.00"/>
        <lane id=":J1_39_1" index="0" speed="12.28" length="29.82" shape="184.96,199.11 189.45,199.75 196.20,203.80 200.25,210.55 201.60,220.00"/>
    </edge>

    <edge id="E_in" from="E" to="J1" priority="-1">
        <lane id="E_in_0" index="0" speed="13.90" length="180.00" shape="400.00,214.40 220.00,214.40"/>
        <lane id="E_in_1" index="1" speed="13.90" length="180.00" shape="400.00,211.20 220.00,211.20"/>
        <lane id="E_in_2" index="2" speed="13.90" length="180.00" shape="400.00,208.00 220.00,208.00"/>
        <lane id="E_in_3" index="3" speed="13.90" length="180.00" shape="400.00,204.80 220.00,204.80"/>
        <lane id="E_in_4" index="4" speed="13.90" length="180.00" shape="400.00,201.60 220.00,201.60"/>
    </edge>
    <edge id="E_out" from="J1" to="E" priority="-1">
        <lane id="E_out_0" index="0" speed="13.90" length="180.00" shape="220.00,185.60 400.00,185.60"/>
        <lane id="E_out_1" index="1" speed="13.90" length="180.00" shape="220.00,188.80 400.00,188.80"/>
        <lane id="E_out_2" index="2" speed="13.90" length="180.00" shape="220.00,192.00 400.00,192.00"/>
        <lane id="E_out_3" index="3" speed="13.90" length="180.00" shape="220.00,195.20 400.00,195.20"/>
        <lane id="E_out_4" index="4" speed="13.90" length="180.00" shape="220.00,198.40 400.00,198.40"/>
    </edge>
    <edge id="N_in" from="N" to="J1" priority="-1">
        <lane id="N_in_0" index="0" speed="13.90" length="180.00" shape="185.60,400.00 185.60,220.00"/>
        <lane id="N_in_1" index="1" speed="13.90" length="180.00" shape="188.80,400.00 188.80,220.00"/>
        <lane id="N_in_2" index="2" speed="13.90" length="180.00" shape="192.00,400.00 192.00,220.00"/>
        <lane id="N_in_3" index="3" speed="13.90" length="180.00" shape="195.20,400.00 195.20,220.00"/>
        <lane id="N_in_4" index="4" speed="13.90" length="180.00" shape="198.40,400.00 198.40,220.00"/>
    </edge>
    <edge id="N_out" from="J1" to="N" priority="-1">
        <lane id="N_out_0" index="0" speed="13.90" length="180.00" shape="214.40,220.00 214.40,400.00"/>
        <lane id="N_out_1" index="1" speed="13.90" length="180.00" shape="211.20,220.00 211.20,400.00"/>
        <lane id="N_out_2" index="2" speed="13.90" length="180.00" shape="208.00,220.00 208.00,400.00"/>
        <lane id="N_out_3" index="3" speed="13.90" length="180.00" shape="204.80,220.00 204.80,400.00"/>
        <lane id="N_out_4" index="4" speed="13.90" length="180.00" shape="201.60,220.00 201.60,400.00"/>
    </edge>
    <edge id="S_in" from="S" to="J1" priority="-1">
        <lane id="S_in_0" index="0" speed="13.90" length="180.00" shape="214.40,0.00 214.40,180.00"/>
        <lane id="S_in_1" index="1" speed="13.90" length="180.00" shape="211.20,0.00 211.20,180.00"/>
        <lane id="S_in_2" index="2" speed="13.90" length="180.00" shape="208.00,0.00 208.00,180.00"/>
        <lane id="S_in_3" index="3" speed="13.90" length="180.00" shape="204.80,0.00 204.80,180.00"/>
        <lane id="S_in_4" index="4" speed="13.90" length="180.00" shape="201.60,0.00 201.60,180.00"/>
    </edge>
    <edge id="S_out" from="J1" to="S" priority="-1">
        <lane id="S_out_0" index="0" speed="13.90" length="180.00" shape="185.60,180.00 185.60,0.00"/>
        <lane id="S_out_1" index="1" speed="13.90" length="180.00" shape="188.80,180.00 188.80,0.00"/>
        <lane id="S_out_2" index="2" speed="13.90" length="180.00" shape="192.00,180.00 192.00,0.00"/>
        <lane id="S_out_3" index="3" speed="13.90" length="180.00" shape="195.20,180.00 195.20,0.00"/>
        <lane id="S_out_4" index="4" speed="13.90" length="180.00" shape="198.40,180.00 198.40,0.00"/>
    </edge>
    <edge id="W_in" from="W" to="J1" priority="-1">
        <lane id="W_in_0" index="0" speed="13.90" length="180.00" shape="0.00,185.60 180.00,185.60"/>
        <lane id="W_in_1" index="1" speed="13.90" length="180.00" shape="0.00,188.80 180.00,188.80"/>
        <lane id="W_in_2" index="2" speed="13.90" length="180.00" shape="0.00,192.00 180.00,192.00"/>
        <lane id="W_in_3" index="3" speed="13.90" length="180.00" shape="0.00,195.20 180.00,195.20"/>
        <lane id="W_in_4" index="4" speed="13.90" length="180.00" shape="0.00,198.40 180.00,198.40"/>
    </edge>
    <edge id="W_out" from="J1" to="W" priority="-1">
        <lane id="W_out_0" index="0" speed="13.90" length="180.00" shape="180.00,214.40 0.00,214.40"/>
        <lane id="W_out_1" index="1" speed="13.90" length="180.00" shape="180.00,211.20 0.00,211.20"/>
        <lane id="W_out_2" index="2" speed="13.90" length="180.00" shape="180.00,208.00 0.00,208.00"/>
        <lane id="W_out_3" index="3" speed="13.90" length="180.00" shape="180.00,204.80 0.00,204.80"/>
        <lane id="W_out_4" index="4" speed="13.90" length="180.00" shape="180.00,201.60 0.00,201.60"/>
    </edge>

    <tlLogic id="J1" type="static" programID="0" offset="0">
        <phase duration="35" state="GGGGGGGggrrrrrrrrrGGGGGGGggrrrrrrrrr"/>
        <phase duration="3"  state="yyyyyyyyyrrrrrrrrryyyyyyyyyrrrrrrrrr"/>
        <phase duration="25" state="rrrrrrrrrGGGGGGGggrrrrrrrrrGGGGGGGgg"/>
        <phase duration="3"  state="rrrrrrrrryyyyyyyyyrrrrrrrrryyyyyyyyy"/>
    </tlLogic>

    <junction id="E" type="dead_end" x="400.00" y="200.00" incLanes="E_out_0 E_out_1 E_out_2 E_out_3 E_out_4" intLanes="" shape="400.00,200.00 400.00,184.00 400.00,200.00"/>
    <junction id="J1" type="traffic_light" x="200.00" y="200.00" incLanes="N_in_0 N_in_1 N_in_2 N_in_3 N_in_4 E_in_0 E_in_1 E_in_2 E_in_3 E_in_4 S_in_0 S_in_1 S_in_2 S_in_3 S_in_4 W_in_0 W_in_1 W_in_2 W_in_3 W_in_4" intLanes=":J1_0_0 :J1_0_1 :J1_2_0 :J1_2_1 :J1_2_2 :J1_2_3 :J1_2_4 :J1_36_0 :J1_36_1 :J1_9_0 :J1_9_1 :J1_11_0 :J1_11_1 :J1_11_2 :J1_11_3 :J1_11_4 :J1_37_0 :J1_37_1 :J1_18_0 :J1_18_1 :J1_20_0 :J1_20_1 :J1_20_2 :J1_20_3 :J1_20_4 :J1_38_0 :J1_38_1 :J1_27_0 :J1_27_1 :J1_29_0 :J1_29_1 :J1_29_2 :J1_29_3 :J1_29_4 :J1_39_0 :J1_39_1" shape="184.00,220.00 216.00,220.00 216.44,217.78 217.00,217.00 217.78,216.44 218.78,216.11 220.00,216.00 220.00,184.00 217.78,183.56 217.00,183.00 216.44,182.22 216.11,181.22 216.00,180.00 184.00,180.00 183.56,182.22 183.00,183.00 182.22,183.56 181.22,183.89 180.00,184.00 180.00,216.00 182.22,216.44 183.00,217.00 183.56,217.78 183.89,218.78">
        <request index="0"  response="000000000000000000000000000000000000" foes="000000000000000000001111100000000000" cont="0"/>
        <request index="1"  response="000000000000000000000000000000000000" foes="000000000000000000001111100000000000" cont="0"/>
        <request index="2"  response="110000000000000000110000000000000000" foes="111111111110000000111111100000000000" cont="0"/>
        <request index="3"  response="110000000000000000110000000000000000" foes="111111111110000000111111100000000000" cont="0"/>
        <request index="4"  response="110000000000000000110000000000000000" foes="111111111110000000111111100000000000" cont="0"/>
        <request index="5"  response="110000000000000000110000000000000000" foes="111111111110000000111111100000000000" cont="0"/>
        <request index="6"  response="110000000000000000110000000000000000" foes="111111111110000000111111100000000000" cont="0"/>
        <request index="7"  response="110000000001111100110000000000000000" foes="111111100001111100111111100000000000" cont="1"/>
        <request index="8"  response="110000000001111100110000000000000000" foes="111111100001111100111111100000000000" cont="1"/>
        <request index="9"  response="000000000001111100000000000000000000" foes="000000000001111100000000000000000000" cont="0"/>
        <request index="10" response="000000000001111100000000000000000000" foes="000000000001111100000000000000000000" cont="0"/>
        <request index="11" response="000000000111111100000000000111111111" foes="110000000111111100000000000111111111" cont="0"/>
        <request index="12" response="000000000111111100000000000111111111" foes="110000000111111100000000000111111111" cont="0"/>
        <request index="13" response="000000000111111100000000000111111111" foes="110000000111111100000000000111111111" cont="0"/>
        <request index="14" response="000000000111111100000000000111111111" foes="110000000111111100000000000111111111" cont="0"/>
        <request index="15" response="000000000111111100000000000111111111" foes="110000000111111100000000000111111111" cont="0"/>
        <request index="16" response="001111100111111100000000000111111100" foes="001111100111111100000000000111111100" cont="1"/>
        <request index="17" response="001111100111111100000000000111111100" foes="001111100111111100000000000111111100" cont="1"/>
        <request index="18" response="000000000000000000000000000000000000" foes="001111100000000000000000000000000000" cont="0"/>
        <request index="19" response="000000000000000000000000000000000000" foes="001111100000000000000000000000000000" cont="0"/>
        <request index="20" response="110000000000000000110000000000000000" foes="111111100000000000111111111110000000" cont="0"/>
        <request index="21" response="110000000000000000110000000000000000" foes="111111100000000000111111111110000000" cont="0"/>
        <request index="22" response="110000000000000000110000000000000000" foes="111111100000000000111111111110000000" cont="0"/>
        <request index="23" response="110000000000000000110000000000000000" foes="111111100000000000111111111110000000" cont="0"/>
        <request index="24" response="110000000000000000110000000000000000" foes="111111100000000000111111111110000000" cont="0"/>
        <request index="25" response="110000000000000000110000000001111100" foes="111111100000000000111111100001111100" cont="1"/>
        <request index="26" response="110000000000000000110000000001111100" foes="111111100000000000111111100001111100" cont="1"/>
        <request index="27" response="000000000000000000000000000001111100" foes="000000000000000000000000000001111100" cont="0"/>
        <request index="28" response="000000000000000000000000000001111100" foes="000000000000000000000000000001111100" cont="0"/>
        <request index="29" response="000000000111111111000000000111111100" foes="000000000111111111110000000111111100" cont="0"/>
        <request index="30" response="000000000111111111000000000111111100" foes="000000000111111111110000000111111100" cont="0"/>
        <request index="31" response="000000000111111111000000000111111100" foes="000000000111111111110000000111111100" cont="0"/>
        <request index="32" response="000000000111111111000000000111111100" foes="000000000111111111110000000111111100" cont="0"/>
        <request index="33" response="000000000111111111000000000111111100" foes="000000000111111111110000000111111100" cont="0"/>
        <request index="34" response="000000000111111100001111100111111100" foes="000000000111111100001111100111111100" cont="1"/>
        <request index="35" response="000000000111111100001111100111111100" foes="000000000111111100001111100111111100" cont="1"/>
    </junction>
    <junction id="N" type="dead_end" x="200.00" y="400.00" incLanes="N_out_0 N_out_1 N_out_2 N_out_3 N_out_4" intLanes="" shape="200.00,400.00 216.00,400.00 200.00,400.00"/>
    <junction id="S" type="dead_end" x="200.00" y="0.00" incLanes="S_out_0 S_out_1 S_out_2 S_out_3 S_out_4" intLanes="" shape="200.00,0.00 184.00,0.00 200.00,0.00"/>
    <junction id="W" type="dead_end" x="0.00" y="200.00" incLanes="W_out_0 W_out_1 W_out_2 W_out_3 W_out_4" intLanes="" shape="0.00,200.00 0.00,216.00 0.00,200.00"/>

    <junction id=":J1_36_0" type="internal" x="199.11" y="214.32" incLanes=":J1_7_0 S_in_0 S_in_1 S_in_2 S_in_3 S_in_4" intLanes=":J1_11_0 :J1_11_1 :J1_11_2 :J1_11_3 :J1_11_4 :J1_16_0 :J1_16_1 :J1_18_0 :J1_18_1 :J1_20_0 :J1_20_1 :J1_20_2 :J1_20_3 :J1_20_4 :J1_29_0 :J1_29_1 :J1_29_2 :J1_29_3 :J1_29_4 :J1_34_0 :J1_34_1"/>
    <junction id=":J1_36_1" type="internal" x="199.11" y="215.04" incLanes=":J1_7_1 S_in_0 S_in_1 S_in_2 S_in_3 S_in_4" intLanes=":J1_11_0 :J1_11_1 :J1_11_2 :J1_11_3 :J1_11_4 :J1_16_0 :J1_16_1 :J1_18_0 :J1_18_1 :J1_20_0 :J1_20_1 :J1_20_2 :J1_20_3 :J1_20_4 :J1_29_0 :J1_29_1 :J1_29_2 :J1_29_3 :J1_29_4 :J1_34_0 :J1_34_1"/>
    <junction id=":J1_37_0" type="internal" x="214.32" y="200.89" incLanes=":J1_16_0 W_in_0 W_in_1 W_in_2 W_in_3 W_in_4" intLanes=":J1_2_0 :J1_2_1 :J1_2_2 :J1_2_3 :J1_2_4 :J1_7_0 :J1_7_1 :J1_20_0 :J1_20_1 :J1_20_2 :J1_20_3 :J1_20_4 :J1_25_0 :J1_25_1 :J1_27_0 :J1_27_1 :J1_29_0 :J1_29_1 :J1_29_2 :J1_29_3 :J1_29_4"/>
    <junction id=":J1_37_1" type="internal" x="215.04" y="200.89" incLanes=":J1_16_1 W_in_0 W_in_1 W_in_2 W_in_3 W_in_4" intLanes=":J1_2_0 :J1_2_1 :J1_2_2 :J1_2_3 :J1_2_4 :J1_7_0 :J1_7_1 :J1_20_0 :J1_20_1 :J1_20_2 :J1_20_3 :J1_20_4 :J1_25_0 :J1_25_1 :J1_27_0 :J1_27_1 :J1_29_0 :J1_29_1 :J1_29_2 :J1_29_3 :J1_29_4"/>
    <junction id=":J1_38_0" type="internal" x="200.89" y="185.68" incLanes=":J1_25_0 N_in_0 N_in_1 N_in_2 N_in_3 N_in_4" intLanes=":J1_0_0 :J1_0_1 :J1_2_0 :J1_2_1 :J1_2_2 :J1_2_3 :J1_2_4 :J1_11_0 :J1_11_1 :J1_11_2 :J1_11_3 :J1_11_4 :J1_16_0 :J1_16_1 :J1_29_0 :J1_29_1 :J1_29_2 :J1_29_3 :J1_29_4 :J1_34_0 :J1_34_1"/>
    <junction id=":J1_38_1" type="internal" x="200.89" y="184.96" incLanes=":J1_25_1 N_in_0 N_in_1 N_in_2 N_in_3 N_in_4" intLanes=":J1_0_0 :J1_0_1 :J1_2_0 :J1_2_1 :J1_2_2 :J1_2_3 :J1_2_4 :J1_11_0 :J1_11_1 :J1_11_2 :J1_11_3 :J1_11_4 :J1_16_0 :J1_16_1 :J1_29_0 :J1_29_1 :J1_29_2 :J1_29_3 :J1_29_4 :J1_34_0 :J1_34_1"/>
    <junction id=":J1_39_0" type="internal" x="185.68" y="199.11" incLanes=":J1_34_0 E_in_0 E_in_1 E_in_2 E_in_3 E_in_4" intLanes=":J1_2_0 :J1_2_1 :J1_2_2 :J1_2_3 :J1_2_4 :J1_7_0 :J1_7_1 :J1_9_0 :J1_9_1 :J1_11_0 :J1_11_1 :J1_11_2 :J1_11_3 :J1_11_4 :J1_20_0 :J1_20_1 :J1_20_2 :J1_20_3 :J1_20_4 :J1_25_0 :J1_25_1"/>
    <junction id=":J1_39_1" type="internal" x="184.96" y="199.11" incLanes=":J1_34_1 E_in_0 E_in_1 E_in_2 E_in_3 E_in_4" intLanes=":J1_2_0 :J1_2_1 :J1_2_2 :J1_2_3 :J1_2_4 :J1_7_0 :J1_7_1 :J1_9_0 :J1_9_1 :J1_11_0 :J1_11_1 :J1_11_2 :J1_11_3 :J1_11_4 :J1_20_0 :J1_20_1 :J1_20_2 :J1_20_3 :J1_20_4 :J1_25_0 :J1_25_1"/>

    <connection from="E_in" to="N_out" fromLane="0" toLane="0" via=":J1_9_0" tl="J1" linkIndex="9" dir="r" state="o"/>
    <connection from="E_in" to="N_out" fromLane="0" toLane="1" via=":J1_9_1" tl="J1" linkIndex="10" dir="r" state="o"/>
    <connection from="E_in" to="W_out" fromLane="0" toLane="0" via=":J1_11_0" tl="J1" linkIndex="11" dir="s" state="o"/>
    <connection from="E_in" to="W_out" fromLane="1" toLane="1" via=":J1_11_1" tl="J1" linkIndex="12" dir="s" state="o"/>
    <connection from="E_in" to="W_out" fromLane="2" toLane="2" via=":J1_11_2" tl="J1" linkIndex="13" dir="s" state="o"/>
    <connection from="E_in" to="W_out" fromLane="3" toLane="3" via=":J1_11_3" tl="J1" linkIndex="14" dir="s" state="o"/>
    <connection from="E_in" to="W_out" fromLane="4" toLane="4" via=":J1_11_4" tl="J1" linkIndex="15" dir="s" state="o"/>
    <connection from="E_in" to="S_out" fromLane="4" toLane="3" via=":J1_16_0" tl="J1" linkIndex="16" dir="l" state="o"/>
    <connection from="E_in" to="S_out" fromLane="4" toLane="4" via=":J1_16_1" tl="J1" linkIndex="17" dir="l" state="o"/>
    <connection from="N_in" to="W_out" fromLane="0" toLane="0" via=":J1_0_0" tl="J1" linkIndex="0" dir="r" state="O"/>
    <connection from="N_in" to="W_out" fromLane="0" toLane="1" via=":J1_0_1" tl="J1" linkIndex="1" dir="r" state="O"/>
    <connection from="N_in" to="S_out" fromLane="0" toLane="0" via=":J1_2_0" tl="J1" linkIndex="2" dir="s" state="O"/>
    <connection from="N_in" to="S_out" fromLane="1" toLane="1" via=":J1_2_1" tl="J1" linkIndex="3" dir="s" state="O"/>
    <connection from="N_in" to="S_out" fromLane="2" toLane="2" via=":J1_2_2" tl="J1" linkIndex="4" dir="s" state="O"/>
    <connection from="N_in" to="S_out" fromLane="3" toLane="3" via=":J1_2_3" tl="J1" linkIndex="5" dir="s" state="O"/>
    <connection from="N_in" to="S_out" fromLane="4" toLane="4" via=":J1_2_4" tl="J1" linkIndex="6" dir="s" state="O"/>
    <connection from="N_in" to="E_out" fromLane="4" toLane="3" via=":J1_7_0" tl="J1" linkIndex="7" dir="l" state="o"/>
    <connection from="N_in" to="E_out" fromLane="4" toLane="4" via=":J1_7_1" tl="J1" linkIndex="8" dir="l" state="o"/>
    <connection from="S_in" to="E_out" fromLane="0" toLane="0" via=":J1_18_0" tl="J1" linkIndex="18" dir="r" state="O"/>
    <connection from="S_in" to="E_out" fromLane="0" toLane="1" via=":J1_18_1" tl="J1" linkIndex="19" dir="r" state="O"/>
    <connection from="S_in" to="N_out" fromLane="0" toLane="0" via=":J1_20_0" tl="J1" linkIndex="20" dir="s" state="O"/>
    <connection from="S_in" to="N_out" fromLane="1" toLane="1" via=":J1_20_1" tl="J1" linkIndex="21" dir="s" state="O"/>
    <connection from="S_in" to="N_out" fromLane="2" toLane="2" via=":J1_20_2" tl="J1" linkIndex="22" dir="s" state="O"/>
    <connection from="S_in" to="N_out" fromLane="3" toLane="3" via=":J1_20_3" tl="J1" linkIndex="23" dir="s" state="O"/>
    <connection from="S_in" to="N_out" fromLane="4" toLane="4" via=":J1_20_4" tl="J1" linkIndex="24" dir="s" state="O"/>
    <connection from="S_in" to="W_out" fromLane="4" toLane="3" via=":J1_25_0" tl="J1" linkIndex="25" dir="l" state="o"/>
    <connection from="S_in" to="W_out" fromLane="4" toLane="4" via=":J1_25_1" tl="J1" linkIndex="26" dir="l" state="o"/>
    <connection from="W_in" to="S_out" fromLane="0" toLane="0" via=":J1_27_0" tl="J1" linkIndex="27" dir="r" state="o"/>
    <connection from="W_in" to="S_out" fromLane="0" toLane="1" via=":J1_27_1" tl="J1" linkIndex="28" dir="r" state="o"/>
    <connection from="W_in" to="E_out" fromLane="0" toLane="0" via=":J1_29_0" tl="J1" linkIndex="29" dir="s" state="o"/>
    <connection from="W_in" to="E_out" fromLane="1" toLane="1" via=":J1_29_1" tl="J1" linkIndex="30" dir="s" state="o"/>
    <connection from="W_in" to="E_out" fromLane="2" toLane="2" via=":J1_29_2" tl="J1" linkIndex="31" dir="s" state="o"/>
    <connection from="W_in" to="E_out" fromLane="3" toLane="3" via=":J1_29_3" tl="J1" linkIndex="32" dir="s" state="o"/>
    <connection from="W_in" to="E_out" fromLane="4" toLane="4" via=":J1_29_4" tl="J1" linkIndex="33" dir="s" state="o"/>
    <connection from="W_in" to="N_out" fromLane="4" toLane="3" via=":J1_34_0" tl="J1" linkIndex="34" dir="l" state="o"/>
    <connection from="W_in" to="N_out" fromLane="4" toLane="4" via=":J1_34_1" tl="J1" linkIndex="35" dir="l" state="o"/>

    <connection from=":J1_0" to="W_out" fromLane="0" toLane="0" dir="r" state="M"/>
    <connection from=":J1_0" to="W_out" fromLane="1" toLane="1" dir="r" state="M"/>
    <connection from=":J1_2" to="S_out" fromLane="0" toLane="0" dir="s" state="M"/>
    <connection from=":J1_2" to="S_out" fromLane="1" toLane="1" dir="s" state="M"/>
    <connection from=":J1_2" to="S_out" fromLane="2" toLane="2" dir="s" state="M"/>
    <connection from=":J1_2" to="S_out" fromLane="3" toLane="3" dir="s" state="M"/>
    <connection from=":J1_2" to="S_out" fromLane="4" toLane="4" dir="s" state="M"/>
    <connection from=":J1_7" to="E_out" fromLane="0" toLane="3" via=":J1_36_0" dir="l" state="m"/>
    <connection from=":J1_36" to="E_out" fromLane="0" toLane="3" dir="l" state="M"/>
    <connection from=":J1_7" to="E_out" fromLane="1" toLane="4" via=":J1_36_1" dir="l" state="m"/>
    <connection from=":J1_36" to="E_out" fromLane="1" toLane="4" dir="l" state="M"/>
    <connection from=":J1_9" to="N_out" fromLane="0" toLane="0" dir="r" state="M"/>
    <connection from=":J1_9" to="N_out" fromLane="1" toLane="1" dir="r" state="M"/>
    <connection from=":J1_11" to="W_out" fromLane="0" toLane="0" dir="s" state="M"/>
    <connection from=":J1_11" to="W_out" fromLane="1" toLane="1" dir="s" state="M"/>
    <connection from=":J1_11" to="W_out" fromLane="2" toLane="2" dir="s" state="M"/>
    <connection from=":J1_11" to="W_out" fromLane="3" toLane="3" dir="s" state="M"/>
    <connection from=":J1_11" to="W_out" fromLane="4" toLane="4" dir="s" state="M"/>
    <connection from=":J1_16" to="S_out" fromLane="0" toLane="3" via=":J1_37_0" dir="l" state="m"/>
    <connection from=":J1_37" to="S_out" fromLane="0" toLane="3" dir="l" state="M"/>
    <connection from=":J1_16" to="S_out" fromLane="1" toLane="4" via=":J1_37_1" dir="l" state="m"/>
    <connection from=":J1_37" to="S_out" fromLane="1" toLane="4" dir="l" state="M"/>
    <connection from=":J1_18" to="E_out" fromLane="0" toLane="0" dir="r" state="M"/>
    <connection from=":J1_18" to="E_out" fromLane="1" toLane="1" dir="r" state="M"/>
    <connection from=":J1_20" to="N_out" fromLane="0" toLane="0" dir="s" state="M"/>
    <connection from=":J1_20" to="N_out" fromLane="1" toLane="1" dir="s" state="M"/>
    <connection from=":J1_20" to="N_out" fromLane="2" toLane="2" dir="s" state="M"/>
    <connection from=":J1_20" to="N_out" fromLane="3" toLane="3" dir="s" state="M"/>
    <connection from=":J1_20" to="N_out" fromLane="4" toLane="4" dir="s" state="M"/>
    <connection from=":J1_25" to="W_out" fromLane="0" toLane="3" via=":J1_38_0" dir="l" state="m"/>
    <connection from=":J1_38" to="W_out" fromLane="0" toLane="3" dir="l" state="M"/>
    <connection from=":J1_25" to="W_out" fromLane="1" toLane="4" via=":J1_38_1" dir="l" state="m"/>
    <connection from=":J1_38" to="W_out" fromLane="1" toLane="4" dir="l" state="M"/>
    <connection from=":J1_27" to="S_out" fromLane="0" toLane="0" dir="r" state="M"/>
    <connection from=":J1_27" to="S_out" fromLane="1" toLane="1" dir="r" state="M"/>
    <connection from=":J1_29" to="E_out" fromLane="0" toLane="0" dir="s" state="M"/>
    <connection from=":J1_29" to="E_out" fromLane="1" toLane="1" dir="s" state="M"/>
    <connection from=":J1_29" to="E_out" fromLane="2" toLane="2" dir="s" state="M"/>
    <connection from=":J1_29" to="E_out" fromLane="3" toLane="3" dir="s" state="M"/>
    <connection from=":J1_29" to="E_out" fromLane="4" toLane="4" dir="s" state="M"/>
    <connection from=":J1_34" to="N_out" fromLane="0" toLane="3" via=":J1_39_0" dir="l" state="m"/>
    <connection from=":J1_39" to="N_out" fromLane="0" toLane="3" dir="l" state="M"/>
    <connection from=":J1_34" to="N_out" fromLane="1" toLane="4" via=":J1_39_1" dir="l" state="m"/>
    <connection from=":J1_39" to="N_out" fromLane="1" toLane="4" dir="l" state="M"/>

</net>
