<?xml version="1.0" encoding="UTF-8"?>
<nodes>
    <node id="W" x="0" y="200" type="priority"/>
    <node id="E" x="400" y="200" type="priority"/>
    <node id="N" x="200" y="400" type="priority"/>
    <node id="S" x="200" y="0" type="priority"/>
    <node id="J1" x="200" y="200" type="traffic_light"/>
</nodes>
