<?xml version='1.0' encoding='utf-8'?>
<routes>

  
<vTypeDistribution id="civilianMix">
    <vType id="moto" vClass="motorcycle" accel="2.6" decel="4.5" length="1.9" minGap="1.0" maxSpeed="16.0" sigma="0.5" speedFactor="normc(1.0,0.12,0.7,1.3)" color="0,255,0" probability="0.48750000000000004" />
    <vType id="car" vClass="passenger" accel="2.6" decel="4.5" length="4.5" minGap="2.5" maxSpeed="20.0" sigma="0.5" speedFactor="normc(1.0,0.10,0.7,1.3)" color="255,0,0" probability="0.15000000000000002" />
    <vType id="truck" vClass="truck" accel="1.3" decel="3.0" length="7.5" minGap="3.0" maxSpeed="16.0" sigma="0.6" speedFactor="normc(0.95,0.08,0.7,1.2)" color="255,165,0" probability="0.052500000000000005" />
    <vType id="bus" vClass="bus" accel="1.2" decel="3.0" length="12.0" minGap="3.0" maxSpeed="16.0" sigma="0.6" speedFactor="normc(0.95,0.08,0.7,1.2)" color="0,128,255" probability="0.037500000000000006" />
    <vType id="container" vClass="truck" accel="0.9" decel="2.5" length="14.0" minGap="3.5" maxSpeed="14.0" sigma="0.7" speedFactor="normc(0.9,0.07,0.7,1.15)" color="128,64,0" probability="0.0225" />
  </vTypeDistribution>

  
  <vType id="fire" vClass="emergency" accel="2.8" decel="5.0" length="7.0" minGap="2.5" maxSpeed="25.0" sigma="0.3" speedFactor="normc(1.10,0.05,0.90,1.30)" color="255,100,0" />
  <vType id="military" vClass="emergency" accel="2.2" decel="4.0" length="7.5" minGap="3.0" maxSpeed="22.0" sigma="0.3" speedFactor="normc(1.05,0.05,0.90,1.20)" color="0,128,0" />
  <vType id="police" vClass="emergency" accel="2.8" decel="5.0" length="4.8" minGap="2.0" maxSpeed="25.0" sigma="0.3" speedFactor="normc(1.05,0.05,0.90,1.20)" color="0,0,255" />
  <vType id="ambulance" vClass="emergency" accel="2.8" decel="5.0" length="5.0" minGap="2.0" maxSpeed="25.0" sigma="0.3" speedFactor="normc(1.05,0.05,0.90,1.20)" color="255,0,0" />

  
  
  
  
<route id="r_N_to_S" edges="N_in S_out" />  
  <route id="r_N_to_E" edges="N_in E_out" />  
  <route id="r_N_to_W" edges="N_in W_out" />  
  <route id="r_N_to_N" edges="N_in N_out" />  

  
  <route id="r_S_to_N" edges="S_in N_out" />
  <route id="r_S_to_W" edges="S_in W_out" />
  <route id="r_S_to_E" edges="S_in E_out" />
  <route id="r_S_to_S" edges="S_in S_out" />  

  
  <route id="r_E_to_W" edges="E_in W_out" />
  <route id="r_E_to_S" edges="E_in S_out" />
  <route id="r_E_to_N" edges="E_in N_out" />
  <route id="r_E_to_E" edges="E_in E_out" />  

  
  <route id="r_W_to_E" edges="W_in E_out" />
  <route id="r_W_to_N" edges="W_in N_out" />
  <route id="r_W_to_S" edges="W_in S_out" />
  <route id="r_W_to_W" edges="W_in W_out" />  

  
  
  
  
  <flow id="morn5_21600_21900_N_straight" type="civilianMix" route="r_N_to_S" begin="21600" end="21900" probability="0.0589371723" departLane="random" departSpeed="random" departPos="random_free" />
  <flow id="morn5_21600_21900_N_left" type="civilianMix" route="r_N_to_E" begin="21600" end="21900" probability="0.023574976349999995" departLane="random" departSpeed="random" departPos="random_free" />
  <flow id="morn5_21600_21900_N_right" type="civilianMix" route="r_N_to_W" begin="21600" end="21900" probability="0.023574976349999995" departLane="random" departSpeed="random" departPos="random_free" />
  <flow id="morn5_21600_21900_N_uturn" type="civilianMix" route="r_N_to_N" begin="21600" end="21900" probability="0.01133977365" departLane="random" departSpeed="random" departPos="random_free" />
  <flow id="morn5_21600_21900_S_straight" type="civilianMix" route="r_S_to_N" begin="21600" end="21900" probability="0.0589371723" departLane="random" departSpeed="random" departPos="random_free" />
  <flow id="morn5_21600_21900_S_left" type="civilianMix" route="r_S_to_W" begin="21600" end="21900" probability="0.023574976349999995" departLane="random" departSpeed="random" departPos="random_free" />
  <flow id="morn5_21600_21900_S_right" type="civilianMix" route="r_S_to_E" begin="21600" end="21900" probability="0.023574976349999995" departLane="random" departSpeed="random" departPos="random_free" />
  <flow id="morn5_21600_21900_S_uturn" type="civilianMix" route="r_S_to_S" begin="21600" end="21900" probability="0.01133977365" departLane="random" departSpeed="random" departPos="random_free" />
  <flow id="morn5_21600_21900_E_straight" type="civilianMix" route="r_E_to_W" begin="21600" end="21900" probability="0.0578929527" departLane="random" departSpeed="random" departPos="random_free" />
  <flow id="morn5_21600_21900_E_left" type="civilianMix" route="r_E_to_S" begin="21600" end="21900" probability="0.02327632095" departLane="random" departSpeed="random" departPos="random_free" />
  <flow id="morn5_21600_21900_E_right" type="civilianMix" route="r_E_to_N" begin="21600" end="21900" probability="0.02327632095" departLane="random" departSpeed="random" departPos="random_free" />
  <flow id="morn5_21600_21900_E_uturn" type="civilianMix" route="r_E_to_E" begin="21600" end="21900" probability="0.011190445949999999" departLane="random" departSpeed="random" departPos="random_free" />
  <flow id="morn5_21600_21900_W_straight" type="civilianMix" route="r_W_to_E" begin="21600" end="21900" probability="0.0578929527" departLane="random" departSpeed="random" departPos="random_free" />
  <flow id="morn5_21600_21900_W_left" type="civilianMix" route="r_W_to_N" begin="21600" end="21900" probability="0.02327632095" departLane="random" departSpeed="random" departPos="random_free" />
  <flow id="morn5_21600_21900_W_right" type="civilianMix" route="r_W_to_S" begin="21600" end="21900" probability="0.02327632095" departLane="random" departSpeed="random" departPos="random_free" />
  <flow id="morn5_21600_21900_W_uturn" type="civilianMix" route="r_W_to_W" begin="21600" end="21900" probability="0.011190445949999999" departLane="random" departSpeed="random" departPos="random_free" />
  <flow id="morn5_21900_22200_N_straight" type="civilianMix" route="r_N_to_S" begin="21900" end="22200" probability="0.06938205404999999" departLane="random" departSpeed="random" departPos="random_free" />
  <flow id="morn5_21900_22200_N_left" type="civilianMix" route="r_N_to_E" begin="21900" end="22200" probability="0.027752929049999996" departLane="random" departSpeed="random" departPos="random_free" />
  <flow id="morn5_21900_22200_N_right" type="civilianMix" route="r_N_to_W" begin="21900" end="22200" probability="0.027752929049999996" departLane="random" departSpeed="random" departPos="random_free" />
  <flow id="morn5_21900_22200_N_uturn" type="civilianMix" route="r_N_to_N" begin="21900" end="22200" probability="0.01253332095" departLane="random" departSpeed="random" departPos="random_free" />
  <flow id="morn5_21900_22200_S_straight" type="civilianMix" route="r_S_to_N" begin="21900" end="22200" probability="0.06938205404999999" departLane="random" departSpeed="random" departPos="random_free" />
  <flow id="morn5_21900_22200_S_left" type="civilianMix" route="r_S_to_W" begin="21900" end="22200" probability="0.027752929049999996" departLane="random" departSpeed="random" departPos="random_free" />
  <flow id="morn5_21900_22200_S_right" type="civilianMix" route="r_S_to_E" begin="21900" end="22200" probability="0.027752929049999996" departLane="random" departSpeed="random" departPos="random_free" />
  <flow id="morn5_21900_22200_S_uturn" type="civilianMix" route="r_S_to_S" begin="21900" end="22200" probability="0.01253332095" departLane="random" departSpeed="random" departPos="random_free" />
  <flow id="morn5_21900_22200_E_straight" type="civilianMix" route="r_E_to_W" begin="21900" end="22200" probability="0.06624832095" departLane="random" departSpeed="random" departPos="random_free" />
  <flow id="morn5_21900_22200_E_left" type="civilianMix" route="r_E_to_S" begin="21900" end="22200" probability="0.026857500000000003" departLane="random" departSpeed="random" departPos="random_free" />
  <flow id="morn5_21900_22200_E_right" type="civilianMix" route="r_E_to_N" begin="21900" end="22200" probability="0.026857500000000003" departLane="random" departSpeed="random" departPos="random_free" />
  <flow id="morn5_21900_22200_E_uturn" type="civilianMix" route="r_E_to_E" begin="21900" end="22200" probability="0.012085875" departLane="random" departSpeed="random" departPos="random_free" />
  <flow id="morn5_21900_22200_W_straight" type="civilianMix" route="r_W_to_E" begin="21900" end="22200" probability="0.06624832095" departLane="random" departSpeed="random" departPos="random_free" />
  <flow id="morn5_21900_22200_W_left" type="civilianMix" route="r_W_to_N" begin="21900" end="22200" probability="0.026857500000000003" departLane="random" departSpeed="random" departPos="random_free" />
  <flow id="morn5_21900_22200_W_right" type="civilianMix" route="r_W_to_S" begin="21900" end="22200" probability="0.026857500000000003" departLane="random" departSpeed="random" departPos="random_free" />
  <flow id="morn5_21900_22200_W_uturn" type="civilianMix" route="r_W_to_W" begin="21900" end="22200" probability="0.012085875" departLane="random" departSpeed="random" departPos="random_free" />
  <flow id="morn5_22200_22500_N_straight" type="civilianMix" route="r_N_to_S" begin="22200" end="22500" probability="0.07982639864999999" departLane="random" departSpeed="random" departPos="random_free" />
  <flow id="morn5_22200_22500_N_left" type="civilianMix" route="r_N_to_E" begin="22200" end="22500" probability="0.031930344599999994" departLane="random" departSpeed="random" departPos="random_free" />
  <flow id="morn5_22200_22500_N_right" type="civilianMix" route="r_N_to_W" begin="22200" end="22500" probability="0.031930344599999994" departLane="random" departSpeed="random" departPos="random_free" />
  <flow id="morn5_22200_22500_N_uturn" type="civilianMix" route="r_N_to_N" begin="22200" end="22500" probability="0.013727405399999998" departLane="random" departSpeed="random" departPos="random_free" />
  <flow id="morn5_22200_22500_S_straight" type="civilianMix" route="r_S_to_N" begin="22200" end="22500" probability="0.07982639864999999" departLane="random" departSpeed="random" departPos="random_free" />
  <flow id="morn5_22200_22500_S_left" type="civilianMix" route="r_S_to_W" begin="22200" end="22500" probability="0.031930344599999994" departLane="random" departSpeed="random" departPos="random_free" />
  <flow id="morn5_22200_22500_S_right" type="civilianMix" route="r_S_to_E" begin="22200" end="22500" probability="0.031930344599999994" departLane="random" departSpeed="random" departPos="random_free" />
  <flow id="morn5_22200_22500_S_uturn" type="civilianMix" route="r_S_to_S" begin="22200" end="22500" probability="0.013727405399999998" departLane="random" departSpeed="random" departPos="random_free" />
  <flow id="morn5_22200_22500_E_straight" type="civilianMix" route="r_E_to_W" begin="22200" end="22500" probability="0.07460422635" departLane="random" departSpeed="random" departPos="random_free" />
  <flow id="morn5_22200_22500_E_left" type="civilianMix" route="r_E_to_S" begin="22200" end="22500" probability="0.03043867905" departLane="random" departSpeed="random" departPos="random_free" />
  <flow id="morn5_22200_22500_E_right" type="civilianMix" route="r_E_to_N" begin="22200" end="22500" probability="0.03043867905" departLane="random" departSpeed="random" departPos="random_free" />
  <flow id="morn5_22200_22500_E_uturn" type="civilianMix" route="r_E_to_E" begin="22200" end="22500" probability="0.012981304050000001" departLane="random" departSpeed="random" departPos="random_free" />
  <flow id="morn5_22200_22500_W_straight" type="civilianMix" route="r_W_to_E" begin="22200" end="22500" probability="0.07460422635" departLane="random" departSpeed="random" departPos="random_free" />
  <flow id="morn5_22200_22500_W_left" type="civilianMix" route="r_W_to_N" begin="22200" end="22500" probability="0.03043867905" departLane="random" departSpeed="random" departPos="random_free" />
  <flow id="morn5_22200_22500_W_right" type="civilianMix" route="r_W_to_S" begin="22200" end="22500" probability="0.03043867905" departLane="random" departSpeed="random" departPos="random_free" />
  <flow id="morn5_22200_22500_W_uturn" type="civilianMix" route="r_W_to_W" begin="22200" end="22500" probability="0.012981304050000001" departLane="random" departSpeed="random" departPos="random_free" />
  <flow id="morn5_22500_22800_N_straight" type="civilianMix" route="r_N_to_S" begin="22500" end="22800" probability="0.0902712804" departLane="random" departSpeed="random" departPos="random_free" />
  <flow id="morn5_22500_22800_N_left" type="civilianMix" route="r_N_to_E" begin="22500" end="22800" probability="0.0361082973" departLane="random" departSpeed="random" departPos="random_free" />
  <flow id="morn5_22500_22800_N_right" type="civilianMix" route="r_N_to_W" begin="22500" end="22800" probability="0.0361082973" departLane="random" departSpeed="random" departPos="random_free" />
  <flow id="morn5_22500_22800_N_uturn" type="civilianMix" route="r_N_to_N" begin="22500" end="22800" probability="0.0149209527" departLane="random" departSpeed="random" departPos="random_free" />
  <flow id="morn5_22500_22800_S_straight" type="civilianMix" route="r_S_to_N" begin="22500" end="22800" probability="0.0902712804" departLane="random" departSpeed="random" departPos="random_free" />
  <flow id="morn5_22500_22800_S_left" type="civilianMix" route="r_S_to_W" begin="22500" end="22800" probability="0.0361082973" departLane="random" departSpeed="random" departPos="random_free" />
  <flow id="morn5_22500_22800_S_right" type="civilianMix" route="r_S_to_E" begin="22500" end="22800" probability="0.0361082973" departLane="random" departSpeed="random" departPos="random_free" />
  <flow id="morn5_22500_22800_S_uturn" type="civilianMix" route="r_S_to_S" begin="22500" end="22800" probability="0.0149209527" departLane="random" departSpeed="random" departPos="random_free" />
  <flow id="morn5_22500_22800_E_straight" type="civilianMix" route="r_E_to_W" begin="22500" end="22800" probability="0.08295959459999999" departLane="random" departSpeed="random" departPos="random_free" />
  <flow id="morn5_22500_22800_E_left" type="civilianMix" route="r_E_to_S" begin="22500" end="22800" probability="0.03401932095" departLane="random" departSpeed="random" departPos="random_free" />
  <flow id="morn5_22500_22800_E_right" type="civilianMix" route="r_E_to_N" begin="22500" end="22800" probability="0.03401932095" departLane="random" departSpeed="random" departPos="random_free" />
  <flow id="morn5_22500_22800_E_uturn" type="civilianMix" route="r_E_to_E" begin="22500" end="22800" probability="0.013876195949999998" departLane="random" departSpeed="random" departPos="random_free" />
  <flow id="morn5_22500_22800_W_straight" type="civilianMix" route="r_W_to_E" begin="22500" end="22800" probability="0.08295959459999999" departLane="random" departSpeed="random" departPos="random_free" />
  <flow id="morn5_22500_22800_W_left" type="civilianMix" route="r_W_to_N" begin="22500" end="22800" probability="0.03401932095" departLane="random" departSpeed="random" departPos="random_free" />
  <flow id="morn5_22500_22800_W_right" type="civilianMix" route="r_W_to_S" begin="22500" end="22800" probability="0.03401932095" departLane="random" departSpeed="random" departPos="random_free" />
  <flow id="morn5_22500_22800_W_uturn" type="civilianMix" route="r_W_to_W" begin="22500" end="22800" probability="0.013876195949999998" departLane="random" departSpeed="random" departPos="random_free" />
  <flow id="morn5_22800_23100_N_straight" type="civilianMix" route="r_N_to_S" begin="22800" end="23100" probability="0.10071562499999999" departLane="random" departSpeed="random" departPos="random_free" />
  <flow id="morn5_22800_23100_N_left" type="civilianMix" route="r_N_to_E" begin="22800" end="23100" probability="0.040286249999999996" departLane="random" departSpeed="random" departPos="random_free" />
  <flow id="morn5_22800_23100_N_right" type="civilianMix" route="r_N_to_W" begin="22800" end="23100" probability="0.040286249999999996" departLane="random" departSpeed="random" departPos="random_free" />
  <flow id="morn5_22800_23100_N_uturn" type="civilianMix" route="r_N_to_N" begin="22800" end="23100" probability="0.016114499999999997" departLane="random" departSpeed="random" departPos="random_free" />
  <flow id="morn5_22800_23100_S_straight" type="civilianMix" route="r_S_to_N" begin="22800" end="23100" probability="0.10071562499999999" departLane="random" departSpeed="random" departPos="random_free" />
  <flow id="morn5_22800_23100_S_left" type="civilianMix" route="r_S_to_W" begin="22800" end="23100" probability="0.040286249999999996" departLane="random" departSpeed="random" departPos="random_free" />
  <flow id="morn5_22800_23100_S_right" type="civilianMix" route="r_S_to_E" begin="22800" end="23100" probability="0.040286249999999996" departLane="random" departSpeed="random" departPos="random_free" />
  <flow id="morn5_22800_23100_S_uturn" type="civilianMix" route="r_S_to_S" begin="22800" end="23100" probability="0.016114499999999997" departLane="random" departSpeed="random" departPos="random_free" />
  <flow id="morn5_22800_23100_E_straight" type="civilianMix" route="r_E_to_W" begin="22800" end="23100" probability="0.0913155" departLane="random" departSpeed="random" departPos="random_free" />
  <flow id="morn5_22800_23100_E_left" type="civilianMix" route="r_E_to_S" begin="22800" end="23100" probability="0.0376005" departLane="random" departSpeed="random" departPos="random_free" />
  <flow id="morn5_22800_23100_E_right" type="civilianMix" route="r_E_to_N" begin="22800" end="23100" probability="0.0376005" departLane="random" departSpeed="random" departPos="random_free" />
  <flow id="morn5_22800_23100_E_uturn" type="civilianMix" route="r_E_to_E" begin="22800" end="23100" probability="0.014771625" departLane="random" departSpeed="random" departPos="random_free" />
  <flow id="morn5_22800_23100_W_straight" type="civilianMix" route="r_W_to_E" begin="22800" end="23100" probability="0.0913155" departLane="random" departSpeed="random" departPos="random_free" />
  <flow id="morn5_22800_23100_W_left" type="civilianMix" route="r_W_to_N" begin="22800" end="23100" probability="0.0376005" departLane="random" departSpeed="random" departPos="random_free" />
  <flow id="morn5_22800_23100_W_right" type="civilianMix" route="r_W_to_S" begin="22800" end="23100" probability="0.0376005" departLane="random" departSpeed="random" departPos="random_free" />
  <flow id="morn5_22800_23100_W_uturn" type="civilianMix" route="r_W_to_W" begin="22800" end="23100" probability="0.014771625" departLane="random" departSpeed="random" departPos="random_free" />
  <flow id="morn5_23100_23400_N_straight" type="civilianMix" route="r_N_to_S" begin="23100" end="23400" probability="0.11115996959999998" departLane="random" departSpeed="random" departPos="random_free" />
  <flow id="morn5_23100_23400_N_left" type="civilianMix" route="r_N_to_E" begin="23100" end="23400" probability="0.0444642027" departLane="random" departSpeed="random" departPos="random_free" />
  <flow id="morn5_23100_23400_N_right" type="civilianMix" route="r_N_to_W" begin="23100" end="23400" probability="0.0444642027" departLane="random" departSpeed="random" departPos="random_free" />
  <flow id="morn5_23100_23400_N_uturn" type="civilianMix" route="r_N_to_N" begin="23100" end="23400" probability="0.0173080473" departLane="random" departSpeed="random" departPos="random_free" />
  <flow id="morn5_23100_23400_S_straight" type="civilianMix" route="r_S_to_N" begin="23100" end="23400" probability="0.11115996959999998" departLane="random" departSpeed="random" departPos="random_free" />
  <flow id="morn5_23100_23400_S_left" type="civilianMix" route="r_S_to_W" begin="23100" end="23400" probability="0.0444642027" departLane="random" departSpeed="random" departPos="random_free" />
  <flow id="morn5_23100_23400_S_right" type="civilianMix" route="r_S_to_E" begin="23100" end="23400" probability="0.0444642027" departLane="random" departSpeed="random" departPos="random_free" />
  <flow id="morn5_23100_23400_S_uturn" type="civilianMix" route="r_S_to_S" begin="23100" end="23400" probability="0.0173080473" departLane="random" departSpeed="random" departPos="random_free" />
  <flow id="morn5_23100_23400_E_straight" type="civilianMix" route="r_E_to_W" begin="23100" end="23400" probability="0.09967140539999998" departLane="random" departSpeed="random" departPos="random_free" />
  <flow id="morn5_23100_23400_E_left" type="civilianMix" route="r_E_to_S" begin="23100" end="23400" probability="0.041181679049999996" departLane="random" departSpeed="random" departPos="random_free" />
  <flow id="morn5_23100_23400_E_right" type="civilianMix" route="r_E_to_N" begin="23100" end="23400" probability="0.041181679049999996" departLane="random" departSpeed="random" departPos="random_free" />
  <flow id="morn5_23100_23400_E_uturn" type="civilianMix" route="r_E_to_E" begin="23100" end="23400" probability="0.015667054049999997" departLane="random" departSpeed="random" departPos="random_free" />
  <flow id="morn5_23100_23400_W_straight" type="civilianMix" route="r_W_to_E" begin="23100" end="23400" probability="0.09967140539999998" departLane="random" departSpeed="random" departPos="random_free" />
  <flow id="morn5_23100_23400_W_left" type="civilianMix" route="r_W_to_N" begin="23100" end="23400" probability="0.041181679049999996" departLane="random" departSpeed="random" departPos="random_free" />
  <flow id="morn5_23100_23400_W_right" type="civilianMix" route="r_W_to_S" begin="23100" end="23400" probability="0.041181679049999996" departLane="random" departSpeed="random" departPos="random_free" />
  <flow id="morn5_23100_23400_W_uturn" type="civilianMix" route="r_W_to_W" begin="23100" end="23400" probability="0.015667054049999997" departLane="random" departSpeed="random" departPos="random_free" />
  <flow id="morn5_23400_23700_N_straight" type="civilianMix" route="r_N_to_S" begin="23400" end="23700" probability="0.12160485135" departLane="random" departSpeed="random" departPos="random_free" />
  <flow id="morn5_23400_23700_N_left" type="civilianMix" route="r_N_to_E" begin="23400" end="23700" probability="0.0486421554" departLane="random" departSpeed="random" departPos="random_free" />
  <flow id="morn5_23400_23700_N_right" type="civilianMix" route="r_N_to_W" begin="23400" end="23700" probability="0.0486421554" departLane="random" departSpeed="random" departPos="random_free" />
  <flow id="morn5_23400_23700_N_uturn" type="civilianMix" route="r_N_to_N" begin="23400" end="23700" probability="0.0185015946" departLane="random" departSpeed="random" departPos="random_free" />
  <flow id="morn5_23400_23700_S_straight" type="civilianMix" route="r_S_to_N" begin="23400" end="23700" probability="0.12160485135" departLane="random" departSpeed="random" departPos="random_free" />
  <flow id="morn5_23400_23700_S_left" type="civilianMix" route="r_S_to_W" begin="23400" end="23700" probability="0.0486421554" departLane="random" departSpeed="random" departPos="random_free" />
  <flow id="morn5_23400_23700_S_right" type="civilianMix" route="r_S_to_E" begin="23400" end="23700" probability="0.0486421554" departLane="random" departSpeed="random" departPos="random_free" />
  <flow id="morn5_23400_23700_S_uturn" type="civilianMix" route="r_S_to_S" begin="23400" end="23700" probability="0.0185015946" departLane="random" departSpeed="random" departPos="random_free" />
  <flow id="morn5_23400_23700_E_straight" type="civilianMix" route="r_E_to_W" begin="23400" end="23700" probability="0.10802677364999999" departLane="random" departSpeed="random" departPos="random_free" />
  <flow id="morn5_23400_23700_E_left" type="civilianMix" route="r_E_to_S" begin="23400" end="23700" probability="0.044762320950000004" departLane="random" departSpeed="random" departPos="random_free" />
  <flow id="morn5_23400_23700_E_right" type="civilianMix" route="r_E_to_N" begin="23400" end="23700" probability="0.044762320950000004" departLane="random" departSpeed="random" departPos="random_free" />
  <flow id="morn5_23400_23700_E_uturn" type="civilianMix" route="r_E_to_E" begin="23400" end="23700" probability="0.016561945949999997" departLane="random" departSpeed="random" departPos="random_free" />
  <flow id="morn5_23400_23700_W_straight" type="civilianMix" route="r_W_to_E" begin="23400" end="23700" probability="0.10802677364999999" departLane="random" departSpeed="random" departPos="random_free" />
  <flow id="morn5_23400_23700_W_left" type="civilianMix" route="r_W_to_N" begin="23400" end="23700" probability="0.044762320950000004" departLane="random" departSpeed="random" departPos="random_free" />
  <flow id="morn5_23400_23700_W_right" type="civilianMix" route="r_W_to_S" begin="23400" end="23700" probability="0.044762320950000004" departLane="random" departSpeed="random" departPos="random_free" />
  <flow id="morn5_23400_23700_W_uturn" type="civilianMix" route="r_W_to_W" begin="23400" end="23700" probability="0.016561945949999997" departLane="random" departSpeed="random" departPos="random_free" />
  <flow id="morn5_23700_24000_N_straight" type="civilianMix" route="r_N_to_S" begin="23700" end="24000" probability="0.13204919595" departLane="random" departSpeed="random" departPos="random_free" />
  <flow id="morn5_23700_24000_N_left" type="civilianMix" route="r_N_to_E" begin="23700" end="24000" probability="0.05281957095" departLane="random" departSpeed="random" departPos="random_free" />
  <flow id="morn5_23700_24000_N_right" type="civilianMix" route="r_N_to_W" begin="23700" end="24000" probability="0.05281957095" departLane="random" departSpeed="random" departPos="random_free" />
  <flow id="morn5_23700_24000_N_uturn" type="civilianMix" route="r_N_to_N" begin="23700" end="24000" probability="0.019695679049999998" departLane="random" departSpeed="random" departPos="random_free" />
  <flow id="morn5_23700_24000_S_straight" type="civilianMix" route="r_S_to_N" begin="23700" end="24000" probability="0.13204919595" departLane="random" departSpeed="random" departPos="random_free" />
  <flow id="morn5_23700_24000_S_left" type="civilianMix" route="r_S_to_W" begin="23700" end="24000" probability="0.05281957095" departLane="random" departSpeed="random" departPos="random_free" />
  <flow id="morn5_23700_24000_S_right" type="civilianMix" route="r_S_to_E" begin="23700" end="24000" probability="0.05281957095" departLane="random" departSpeed="random" departPos="random_free" />
  <flow id="morn5_23700_24000_S_uturn" type="civilianMix" route="r_S_to_S" begin="23700" end="24000" probability="0.019695679049999998" departLane="random" departSpeed="random" departPos="random_free" />
  <flow id="morn5_23700_24000_E_straight" type="civilianMix" route="r_E_to_W" begin="23700" end="24000" probability="0.11638267905" departLane="random" departSpeed="random" departPos="random_free" />
  <flow id="morn5_23700_24000_E_left" type="civilianMix" route="r_E_to_S" begin="23700" end="24000" probability="0.0483435" departLane="random" departSpeed="random" departPos="random_free" />
  <flow id="morn5_23700_24000_E_right" type="civilianMix" route="r_E_to_N" begin="23700" end="24000" probability="0.0483435" departLane="random" departSpeed="random" departPos="random_free" />
  <flow id="morn5_23700_24000_E_uturn" type="civilianMix" route="r_E_to_E" begin="23700" end="24000" probability="0.017457375" departLane="random" departSpeed="random" departPos="random_free" />
  <flow id="morn5_23700_24000_W_straight" type="civilianMix" route="r_W_to_E" begin="23700" end="24000" probability="0.11638267905" departLane="random" departSpeed="random" departPos="random_free" />
  <flow id="morn5_23700_24000_W_left" type="civilianMix" route="r_W_to_N" begin="23700" end="24000" probability="0.0483435" departLane="random" departSpeed="random" departPos="random_free" />
  <flow id="morn5_23700_24000_W_right" type="civilianMix" route="r_W_to_S" begin="23700" end="24000" probability="0.0483435" departLane="random" departSpeed="random" departPos="random_free" />
  <flow id="morn5_23700_24000_W_uturn" type="civilianMix" route="r_W_to_W" begin="23700" end="24000" probability="0.017457375" departLane="random" departSpeed="random" departPos="random_free" />
  <flow id="morn5_24000_24300_N_straight" type="civilianMix" route="r_N_to_S" begin="24000" end="24300" probability="0.1424940777" departLane="random" departSpeed="random" departPos="random_free" />
  <flow id="morn5_24000_24300_N_left" type="civilianMix" route="r_N_to_E" begin="24000" end="24300" probability="0.05699752364999999" departLane="random" departSpeed="random" departPos="random_free" />
  <flow id="morn5_24000_24300_N_right" type="civilianMix" route="r_N_to_W" begin="24000" end="24300" probability="0.05699752364999999" departLane="random" departSpeed="random" departPos="random_free" />
  <flow id="morn5_24000_24300_N_uturn" type="civilianMix" route="r_N_to_N" begin="24000" end="24300" probability="0.020889226349999998" departLane="random" departSpeed="random" departPos="random_free" />
  <flow id="morn5_24000_24300_S_straight" type="civilianMix" route="r_S_to_N" begin="24000" end="24300" probability="0.1424940777" departLane="random" departSpeed="random" departPos="random_free" />
  <flow id="morn5_24000_24300_S_left" type="civilianMix" route="r_S_to_W" begin="24000" end="24300" probability="0.05699752364999999" departLane="random" departSpeed="random" departPos="random_free" />
  <flow id="morn5_24000_24300_S_right" type="civilianMix" route="r_S_to_E" begin="24000" end="24300" probability="0.05699752364999999" departLane="random" departSpeed="random" departPos="random_free" />
  <flow id="morn5_24000_24300_S_uturn" type="civilianMix" route="r_S_to_S" begin="24000" end="24300" probability="0.020889226349999998" departLane="random" departSpeed="random" departPos="random_free" />