<?xml version='1.0' encoding='utf-8'?>
<routes>

  
<vTypeDistribution id="civilianMix">
    <vType id="moto" vClass="motorcycle" accel="2.6" decel="4.5" length="1.9" minGap="1.0" maxSpeed="16.0" sigma="0.5" speedFactor="normc(1.0,0.12,0.7,1.3)" color="0,255,0" probability="0.48750000000000004" />
    <vType id="car" vClass="passenger" accel="2.6" decel="4.5" length="4.5" minGap="2.5" maxSpeed="20.0" sigma="0.5" speedFactor="normc(1.0,0.10,0.7,1.3)" color="255,0,0" probability="0.15000000000000002" />
    <vType id="truck" vClass="truck" accel="1.3" decel="3.0" length="7.5" minGap="3.0" maxSpeed="16.0" sigma="0.6" speedFactor="normc(0.95,0.08,0.7,1.2)" color="255,165,0" probability="0.052500000000000005" />
    <vType id="bus" vClass="bus" accel="1.2" decel="3.0" length="12.0" minGap="3.0" maxSpeed="16.0" sigma="0.6" speedFactor="normc(0.95,0.08,0.7,1.2)" color="0,128,255" probability="0.037500000000000006" />
    <vType id="container" vClass="truck" accel="0.9" decel="2.5" length="14.0" minGap="3.5" maxSpeed="14.0" sigma="0.7" speedFactor="normc(0.9,0.07,0.7,1.15)" color="128,64,0" probability="0.0225" />
  </vTypeDistribution>

  
  <vType id="fire" vClass="emergency" accel="2.8" decel="5.0" length="7.0" minGap="2.5" maxSpeed="25.0" sigma="0.3" speedFactor="normc(1.10,0.05,0.90,1.30)" color="255,100,0" />
  <vType id="military" vClass="emergency" accel="2.2" decel="4.0" length="7.5" minGap="3.0" maxSpeed="22.0" sigma="0.3" speedFactor="normc(1.05,0.05,0.90,1.20)" color="0,128,0" />
  <vType id="police" vClass="emergency" accel="2.8" decel="5.0" length="4.8" minGap="2.0" maxSpeed="25.0" sigma="0.3" speedFactor="normc(1.05,0.05,0.90,1.20)" color="0,0,255" />
  <vType id="ambulance" vClass="emergency" accel="2.8" decel="5.0" length="5.0" minGap="2.0" maxSpeed="25.0" sigma="0.3" speedFactor="normc(1.05,0.05,0.90,1.20)" color="255,0,0" />

  
  
  
  
<route id="r_N_to_S" edges="N_in S_out" />  
  <route id="r_N_to_E" edges="N_in E_out" />  
  <route id="r_N_to_W" edges="N_in W_out" />  
  <route id="r_N_to_N" edges="N_in N_out" />  

  
  <route id="r_S_to_N" edges="S_in N_out" />
  <route id="r_S_to_W" edges="S_in W_out" />
  <route id="r_S_to_E" edges="S_in E_out" />
  <route id="r_S_to_S" edges="S_in S_out" />  

  
  <route id="r_E_to_W" edges="E_in W_out" />
  <route id="r_E_to_S" edges="E_in S_out" />
  <route id="r_E_to_N" edges="E_in N_out" />
  <route id="r_E_to_E" edges="E_in E_out" />  

  
  <route id="r_W_to_E" edges="W_in E_out" />
  <route id="r_W_to_N" edges="W_in N_out" />
  <route id="r_W_to_S" edges="W_in S_out" />
  <route id="r_W_to_W" edges="W_in W_out" />  

  
  
  
  
  <flow id="morn5_21600_21900_N_straight" type="civilianMix" route="r_N_to_S" begin="21600" end="21900" probability="0.03274423435037956" departLane="random" departSpeed="random" departPos="random_free" />
  <flow id="morn5_21600_21900_N_left" type="civilianMix" route="r_N_to_E" begin="21600" end="21900" probability="0.013097753425965699" departLane="random" departSpeed="random" departPos="random_free" />
  <flow id="morn5_21600_21900_N_right" type="civilianMix" route="r_N_to_W" begin="21600" end="21900" probability="0.013097753425965699" departLane="random" departSpeed="random" departPos="random_free" />
  <flow id="morn5_21600_21900_N_uturn" type="civilianMix" route="r_N_to_N" begin="21600" end="21900" probability="0.006300136083655629" departLane="random" departSpeed="random" departPos="random_free" />
  <flow id="morn5_21600_21900_S_straight" type="civilianMix" route="r_S_to_N" begin="21600" end="21900" probability="0.03274423435037956" departLane="random" departSpeed="random" departPos="random_free" />
  <flow id="morn5_21600_21900_S_left" type="civilianMix" route="r_S_to_W" begin="21600" end="21900" probability="0.013097753425965699" departLane="random" departSpeed="random" departPos="random_free" />
  <flow id="morn5_21600_21900_S_right" type="civilianMix" route="r_S_to_E" begin="21600" end="21900" probability="0.013097753425965699" departLane="random" departSpeed="random" departPos="random_free" />
  <flow id="morn5_21600_21900_S_uturn" type="civilianMix" route="r_S_to_S" begin="21600" end="21900" probability="0.006300136083655629" departLane="random" departSpeed="random" departPos="random_free" />
  <flow id="morn5_21600_21900_E_straight" type="civilianMix" route="r_E_to_W" begin="21600" end="21900" probability="0.03216408823950719" departLane="random" departSpeed="random" departPos="random_free" />
  <flow id="morn5_21600_21900_E_left" type="civilianMix" route="r_E_to_S" begin="21600" end="21900" probability="0.012931826863391093" departLane="random" departSpeed="random" departPos="random_free" />
  <flow id="morn5_21600_21900_E_right" type="civilianMix" route="r_E_to_N" begin="21600" end="21900" probability="0.012931826863391093" departLane="random" departSpeed="random" departPos="random_free" />
  <flow id="morn5_21600_21900_E_uturn" type="civilianMix" route="r_E_to_E" begin="21600" end="21900" probability="0.006217172802368325" departLane="random" departSpeed="random" departPos="random_free" />
  <flow id="morn5_21600_21900_W_straight" type="civilianMix" route="r_W_to_E" begin="21600" end="21900" probability="0.03216408823950719" departLane="random" departSpeed="random" departPos="random_free" />
  <flow id="morn5_21600_21900_W_left" type="civilianMix" route="r_W_to_N" begin="21600" end="21900" probability="0.012931826863391093" departLane="random" departSpeed="random" departPos="random_free" />
  <flow id="morn5_21600_21900_W_right" type="civilianMix" route="r_W_to_S" begin="21600" end="21900" probability="0.012931826863391093" departLane="random" departSpeed="random" departPos="random_free" />
  <flow id="morn5_21600_21900_W_uturn" type="civilianMix" route="r_W_to_W" begin="21600" end="21900" probability="0.006217172802368325" departLane="random" departSpeed="random" departPos="random_free" />
  <flow id="morn5_21900_22200_N_straight" type="civilianMix" route="r_N_to_S" begin="21900" end="22200" probability="0.03854718760445012" departLane="random" departSpeed="random" departPos="random_free" />
  <flow id="morn5_21900_22200_N_left" type="civilianMix" route="r_N_to_E" begin="21900" end="22200" probability="0.015418934727593925" departLane="random" departSpeed="random" departPos="random_free" />
  <flow id="morn5_21900_22200_N_right" type="civilianMix" route="r_N_to_W" begin="21900" end="22200" probability="0.015418934727593925" departLane="random" departSpeed="random" departPos="random_free" />
  <flow id="morn5_21900_22200_N_uturn" type="civilianMix" route="r_N_to_N" begin="21900" end="22200" probability="0.006963245475815299" departLane="random" departSpeed="random" departPos="random_free" />
  <flow id="morn5_21900_22200_S_straight" type="civilianMix" route="r_S_to_N" begin="21900" end="22200" probability="0.03854718760445012" departLane="random" departSpeed="random" departPos="random_free" />
  <flow id="morn5_21900_22200_S_left" type="civilianMix" route="r_S_to_W" begin="21900" end="22200" probability="0.015418934727593925" departLane="random" departSpeed="random" departPos="random_free" />
  <flow id="morn5_21900_22200_S_right" type="civilianMix" route="r_S_to_E" begin="21900" end="22200" probability="0.015418934727593925" departLane="random" departSpeed="random" departPos="random_free" />
  <flow id="morn5_21900_22200_S_uturn" type="civilianMix" route="r_S_to_S" begin="21900" end="22200" probability="0.006963245475815299" departLane="random" departSpeed="random" departPos="random_free" />
  <flow id="morn5_21900_22200_E_straight" type="civilianMix" route="r_E_to_W" begin="21900" end="22200" probability="0.03680615241369427" departLane="random" departSpeed="random" departPos="random_free" />
  <flow id="morn5_21900_22200_E_left" type="civilianMix" route="r_E_to_S" begin="21900" end="22200" probability="0.014921453468939486" departLane="random" departSpeed="random" departPos="random_free" />
  <flow id="morn5_21900_22200_E_right" type="civilianMix" route="r_E_to_N" begin="21900" end="22200" probability="0.014921453468939486" departLane="random" departSpeed="random" departPos="random_free" />
  <flow id="morn5_21900_22200_E_uturn" type="civilianMix" route="r_E_to_E" begin="21900" end="22200" probability="0.006714654061022768" departLane="random" departSpeed="random" departPos="random_free" />
  <flow id="morn5_21900_22200_W_straight" type="civilianMix" route="r_W_to_E" begin="21900" end="22200" probability="0.03680615241369427" departLane="random" departSpeed="random" departPos="random_free" />
  <flow id="morn5_21900_22200_W_left" type="civilianMix" route="r_W_to_N" begin="21900" end="22200" probability="0.014921453468939486" departLane="random" departSpeed="random" departPos="random_free" />
  <flow id="morn5_21900_22200_W_right" type="civilianMix" route="r_W_to_S" begin="21900" end="22200" probability="0.014921453468939486" departLane="random" departSpeed="random" departPos="random_free" />
  <flow id="morn5_21900_22200_W_uturn" type="civilianMix" route="r_W_to_W" begin="21900" end="22200" probability="0.006714654061022768" departLane="random" departSpeed="random" departPos="random_free" />
  <flow id="morn5_22200_22500_N_straight" type="civilianMix" route="r_N_to_S" begin="22200" end="22500" probability="0.04434984242945131" departLane="random" departSpeed="random" departPos="random_free" />
  <flow id="morn5_22200_22500_N_left" type="civilianMix" route="r_N_to_E" begin="22200" end="22500" probability="0.01773981760015277" departLane="random" departSpeed="random" departPos="random_free" />
  <flow id="morn5_22200_22500_N_right" type="civilianMix" route="r_N_to_W" begin="22200" end="22500" probability="0.01773981760015277" departLane="random" departSpeed="random" departPos="random_free" />
  <flow id="morn5_22200_22500_N_uturn" type="civilianMix" route="r_N_to_N" begin="22200" end="22500" probability="0.007626653297044348" departLane="random" departSpeed="random" departPos="random_free" />
  <flow id="morn5_22200_22500_S_straight" type="civilianMix" route="r_S_to_N" begin="22200" end="22500" probability="0.04434984242945131" departLane="random" departSpeed="random" departPos="random_free" />
  <flow id="morn5_22200_22500_S_left" type="civilianMix" route="r_S_to_W" begin="22200" end="22500" probability="0.01773981760015277" departLane="random" departSpeed="random" departPos="random_free" />
  <flow id="morn5_22200_22500_S_right" type="civilianMix" route="r_S_to_E" begin="22200" end="22500" probability="0.01773981760015277" departLane="random" departSpeed="random" departPos="random_free" />
  <flow id="morn5_22200_22500_S_uturn" type="civilianMix" route="r_S_to_S" begin="22200" end="22500" probability="0.007626653297044348" departLane="random" departSpeed="random" departPos="random_free" />
  <flow id="morn5_22200_22500_E_straight" type="civilianMix" route="r_E_to_W" begin="22200" end="22500" probability="0.04144851501695072" departLane="random" departSpeed="random" departPos="random_free" />
  <flow id="morn5_22200_22500_E_left" type="civilianMix" route="r_E_to_S" begin="22200" end="22500" probability="0.016911080074487876" departLane="random" departSpeed="random" departPos="random_free" />
  <flow id="morn5_22200_22500_E_right" type="civilianMix" route="r_E_to_N" begin="22200" end="22500" probability="0.016911080074487876" departLane="random" departSpeed="random" departPos="random_free" />
  <flow id="morn5_22200_22500_E_uturn" type="civilianMix" route="r_E_to_E" begin="22200" end="22500" probability="0.0072121353196772115" departLane="random" departSpeed="random" departPos="random_free" />
  <flow id="morn5_22200_22500_W_straight" type="civilianMix" route="r_W_to_E" begin="22200" end="22500" probability="0.04144851501695072" departLane="random" departSpeed="random" departPos="random_free" />
  <flow id="morn5_22200_22500_W_left" type="civilianMix" route="r_W_to_N" begin="22200" end="22500" probability="0.016911080074487876" departLane="random" departSpeed="random" departPos="random_free" />
  <flow id="morn5_22200_22500_W_right" type="civilianMix" route="r_W_to_S" begin="22200" end="22500" probability="0.016911080074487876" departLane="random" departSpeed="random" departPos="random_free" />
  <flow id="morn5_22200_22500_W_uturn" type="civilianMix" route="r_W_to_W" begin="22200" end="22500" probability="0.0072121353196772115" departLane="random" departSpeed="random" departPos="random_free" />
  <flow id="morn5_22500_22800_N_straight" type="civilianMix" route="r_N_to_S" begin="22500" end="22800" probability="0.05015279568352188" departLane="random" departSpeed="random" departPos="random_free" />
  <flow id="morn5_22500_22800_N_left" type="civilianMix" route="r_N_to_E" begin="22500" end="22800" probability="0.020060998901781" departLane="random" departSpeed="random" departPos="random_free" />
  <flow id="morn5_22500_22800_N_right" type="civilianMix" route="r_N_to_W" begin="22500" end="22800" probability="0.020060998901781" departLane="random" departSpeed="random" departPos="random_free" />
  <flow id="morn5_22500_22800_N_uturn" type="civilianMix" route="r_N_to_N" begin="22500" end="22800" probability="0.00828976268920402" departLane="random" departSpeed="random" departPos="random_free" />
  <flow id="morn5_22500_22800_S_straight" type="civilianMix" route="r_S_to_N" begin="22500" end="22800" probability="0.05015279568352188" departLane="random" departSpeed="random" departPos="random_free" />
  <flow id="morn5_22500_22800_S_left" type="civilianMix" route="r_S_to_W" begin="22500" end="22800" probability="0.020060998901781" departLane="random" departSpeed="random" departPos="random_free" />
  <flow id="morn5_22500_22800_S_right" type="civilianMix" route="r_S_to_E" begin="22500" end="22800" probability="0.020060998901781" departLane="random" departSpeed="random" departPos="random_free" />
  <flow id="morn5_22500_22800_S_uturn" type="civilianMix" route="r_S_to_S" begin="22500" end="22800" probability="0.00828976268920402" departLane="random" departSpeed="random" departPos="random_free" />
  <flow id="morn5_22500_22800_E_straight" type="civilianMix" route="r_E_to_W" begin="22500" end="22800" probability="0.04609057919113779" departLane="random" departSpeed="random" departPos="random_free" />
  <flow id="morn5_22500_22800_E_left" type="civilianMix" route="r_E_to_S" begin="22500" end="22800" probability="0.018900408250966887" departLane="random" departSpeed="random" departPos="random_free" />
  <flow id="morn5_22500_22800_E_right" type="civilianMix" route="r_E_to_N" begin="22500" end="22800" probability="0.018900408250966887" departLane="random" departSpeed="random" departPos="random_free" />
  <flow id="morn5_22500_22800_E_uturn" type="civilianMix" route="r_E_to_E" begin="22500" end="22800" probability="0.007709318149262273" departLane="random" departSpeed="random" departPos="random_free" />
  <flow id="morn5_22500_22800_W_straight" type="civilianMix" route="r_W_to_E" begin="22500" end="22800" probability="0.04609057919113779" departLane="random" departSpeed="random" departPos="random_free" />
  <flow id="morn5_22500_22800_W_left" type="civilianMix" route="r_W_to_N" begin="22500" end="22800" probability="0.018900408250966887" departLane="random" departSpeed="random" departPos="random_free" />
  <flow id="morn5_22500_22800_W_right" type="civilianMix" route="r_W_to_S" begin="22500" end="22800" probability="0.018900408250966887" departLane="random" departSpeed="random" departPos="random_free" />
  <flow id="morn5_22500_22800_W_uturn" type="civilianMix" route="r_W_to_W" begin="22500" end="22800" probability="0.007709318149262273" departLane="random" departSpeed="random" departPos="random_free" />
  <flow id="morn5_22800_23100_N_straight" type="civilianMix" route="r_N_to_S" begin="22800" end="23100" probability="0.05595545050852306" departLane="random" departSpeed="random" departPos="random_free" />
  <flow id="morn5_22800_23100_N_left" type="civilianMix" route="r_N_to_E" begin="22800" end="23100" probability="0.022382180203409225" departLane="random" departSpeed="random" departPos="random_free" />
  <flow id="morn5_22800_23100_N_right" type="civilianMix" route="r_N_to_W" begin="22800" end="23100" probability="0.022382180203409225" departLane="random" departSpeed="random" departPos="random_free" />
  <flow id="morn5_22800_23100_N_uturn" type="civilianMix" route="r_N_to_N" begin="22800" end="23100" probability="0.008952872081363689" departLane="random" departSpeed="random" departPos="random_free" />
  <flow id="morn5_22800_23100_S_straight" type="civilianMix" route="r_S_to_N" begin="22800" end="23100" probability="0.05595545050852306" departLane="random" departSpeed="random" departPos="random_free" />
  <flow id="morn5_22800_23100_S_left" type="civilianMix" route="r_S_to_W" begin="22800" end="23100" probability="0.022382180203409225" departLane="random" departSpeed="random" departPos="random_free" />
  <flow id="morn5_22800_23100_S_right" type="civilianMix" route="r_S_to_E" begin="22800" end="23100" probability="0.022382180203409225" departLane="random" departSpeed="random" departPos="random_free" />
  <flow id="morn5_22800_23100_S_uturn" type="civilianMix" route="r_S_to_S" begin="22800" end="23100" probability="0.008952872081363689" departLane="random" departSpeed="random" departPos="random_free" />
  <flow id="morn5_22800_23100_E_straight" type="civilianMix" route="r_E_to_W" begin="22800" end="23100" probability="0.05073294179439424" departLane="random" departSpeed="random" departPos="random_free" />
  <flow id="morn5_22800_23100_E_left" type="civilianMix" route="r_E_to_S" begin="22800" end="23100" probability="0.02089003485651528" departLane="random" departSpeed="random" departPos="random_free" />
  <flow id="morn5_22800_23100_E_right" type="civilianMix" route="r_E_to_N" begin="22800" end="23100" probability="0.02089003485651528" departLane="random" departSpeed="random" departPos="random_free" />
  <flow id="morn5_22800_23100_E_uturn" type="civilianMix" route="r_E_to_E" begin="22800" end="23100" probability="0.008206799407916717" departLane="random" departSpeed="random" departPos="random_free" />
  <flow id="morn5_22800_23100_W_straight" type="civilianMix" route="r_W_to_E" begin="22800" end="23100" probability="0.05073294179439424" departLane="random" departSpeed="random" departPos="random_free" />
  <flow id="morn5_22800_23100_W_left" type="civilianMix" route="r_W_to_N" begin="22800" end="23100" probability="0.02089003485651528" departLane="random" departSpeed="random" departPos="random_free" />
  <flow id="morn5_22800_23100_W_right" type="civilianMix" route="r_W_to_S" begin="22800" end="23100" probability="0.02089003485651528" departLane="random" departSpeed="random" departPos="random_free" />
  <flow id="morn5_22800_23100_W_uturn" type="civilianMix" route="r_W_to_W" begin="22800" end="23100" probability="0.008206799407916717" departLane="random" departSpeed="random" departPos="random_free" />
  <flow id="morn5_23100_23400_N_straight" type="civilianMix" route="r_N_to_S" begin="23100" end="23400" probability="0.061758105333524244" departLane="random" departSpeed="random" departPos="random_free" />
  <flow id="morn5_23100_23400_N_left" type="civilianMix" route="r_N_to_E" begin="23100" end="23400" probability="0.024703361505037453" departLane="random" departSpeed="random" departPos="random_free" />
  <flow id="morn5_23100_23400_N_right" type="civilianMix" route="r_N_to_W" begin="23100" end="23400" probability="0.024703361505037453" departLane="random" departSpeed="random" departPos="random_free" />
  <flow id="morn5_23100_23400_N_uturn" type="civilianMix" route="r_N_to_N" begin="23100" end="23400" probability="0.009615981473523362" departLane="random" departSpeed="random" departPos="random_free" />
  <flow id="morn5_23100_23400_S_straight" type="civilianMix" route="r_S_to_N" begin="23100" end="23400" probability="0.061758105333524244" departLane="random" departSpeed="random" departPos="random_free" />
  <flow id="morn5_23100_23400_S_left" type="civilianMix" route="r_S_to_W" begin="23100" end="23400" probability="0.024703361505037453" departLane="random" departSpeed="random" departPos="random_free" />
  <flow id="morn5_23100_23400_S_right" type="civilianMix" route="r_S_to_E" begin="23100" end="23400" probability="0.024703361505037453" departLane="random" departSpeed="random" departPos="random_free" />
  <flow id="morn5_23100_23400_S_uturn" type="civilianMix" route="r_S_to_S" begin="23100" end="23400" probability="0.009615981473523362" departLane="random" departSpeed="random" departPos="random_free" />
  <flow id="morn5_23100_23400_E_straight" type="civilianMix" route="r_E_to_W" begin="23100" end="23400" probability="0.05537530439765069" departLane="random" departSpeed="random" departPos="random_free" />
  <flow id="morn5_23100_23400_E_left" type="civilianMix" route="r_E_to_S" begin="23100" end="23400" probability="0.022879661462063668" departLane="random" departSpeed="random" departPos="random_free" />
  <flow id="morn5_23100_23400_E_right" type="civilianMix" route="r_E_to_N" begin="23100" end="23400" probability="0.022879661462063668" departLane="random" departSpeed="random" departPos="random_free" />
  <flow id="morn5_23100_23400_E_uturn" type="civilianMix" route="r_E_to_E" begin="23100" end="23400" probability="0.008704280666571158" departLane="random" departSpeed="random" departPos="random_free" />
  <flow id="morn5_23100_23400_W_straight" type="civilianMix" route="r_W_to_E" begin="23100" end="23400" probability="0.05537530439765069" departLane="random" departSpeed="random" departPos="random_free" />
  <flow id="morn5_23100_23400_W_left" type="civilianMix" route="r_W_to_N" begin="23100" end="23400" probability="0.022879661462063668" departLane="random" departSpeed="random" departPos="random_free" />
  <flow id="morn5_23100_23400_W_right" type="civilianMix" route="r_W_to_S" begin="23100" end="23400" probability="0.022879661462063668" departLane="random" departSpeed="random" departPos="random_free" />
  <flow id="morn5_23100_23400_W_uturn" type="civilianMix" route="r_W_to_W" begin="23100" end="23400" probability="0.008704280666571158" departLane="random" departSpeed="random" departPos="random_free" />
  <flow id="morn5_23400_23700_N_straight" type="civilianMix" route="r_N_to_S" begin="23400" end="23700" probability="0.06756105858759481" departLane="random" departSpeed="random" departPos="random_free" />
  <flow id="morn5_23400_23700_N_left" type="civilianMix" route="r_N_to_E" begin="23400" end="23700" probability="0.027024542806665677" departLane="random" departSpeed="random" departPos="random_free" />
  <flow id="morn5_23400_23700_N_right" type="civilianMix" route="r_N_to_W" begin="23400" end="23700" probability="0.027024542806665677" departLane="random" departSpeed="random" departPos="random_free" />
  <flow id="morn5_23400_23700_N_uturn" type="civilianMix" route="r_N_to_N" begin="23400" end="23700" probability="0.010279090865683033" departLane="random" departSpeed="random" departPos="random_free" />
  <flow id="morn5_23400_23700_S_straight" type="civilianMix" route="r_S_to_N" begin="23400" end="23700" probability="0.06756105858759481" departLane="random" departSpeed="random" departPos="random_free" />
  <flow id="morn5_23400_23700_S_left" type="civilianMix" route="r_S_to_W" begin="23400" end="23700" probability="0.027024542806665677" departLane="random" departSpeed="random" departPos="random_free" />
  <flow id="morn5_23400_23700_S_right" type="civilianMix" route="r_S_to_E" begin="23400" end="23700" probability="0.027024542806665677" departLane="random" departSpeed="random" departPos="random_free" />
  <flow id="morn5_23400_23700_S_uturn" type="civilianMix" route="r_S_to_S" begin="23400" end="23700" probability="0.010279090865683033" departLane="random" departSpeed="random" departPos="random_free" />
  <flow id="morn5_23400_23700_E_straight" type="civilianMix" route="r_E_to_W" begin="23400" end="23700" probability="0.060017368571837766" departLane="random" departSpeed="random" departPos="random_free" />
  <flow id="morn5_23400_23700_E_left" type="civilianMix" route="r_E_to_S" begin="23400" end="23700" probability="0.02486898963854268" departLane="random" departSpeed="random" departPos="random_free" />
  <flow id="morn5_23400_23700_E_right" type="civilianMix" route="r_E_to_N" begin="23400" end="23700" probability="0.02486898963854268" departLane="random" departSpeed="random" departPos="random_free" />
  <flow id="morn5_23400_23700_E_uturn" type="civilianMix" route="r_E_to_E" begin="23400" end="23700" probability="0.00920146349615622" departLane="random" departSpeed="random" departPos="random_free" />
  <flow id="morn5_23400_23700_W_straight" type="civilianMix" route="r_W_to_E" begin="23400" end="23700" probability="0.060017368571837766" departLane="random" departSpeed="random" departPos="random_free" />
  <flow id="morn5_23400_23700_W_left" type="civilianMix" route="r_W_to_N" begin="23400" end="23700" probability="0.02486898963854268" departLane="random" departSpeed="random" departPos="random_free" />
  <flow id="morn5_23400_23700_W_right" type="civilianMix" route="r_W_to_S" begin="23400" end="23700" probability="0.02486898963854268" departLane="random" departSpeed="random" departPos="random_free" />
  <flow id="morn5_23400_23700_W_uturn" type="civilianMix" route="r_W_to_W" begin="23400" end="23700" probability="0.00920146349615622" departLane="random" departSpeed="random" departPos="random_free" />
  <flow id="morn5_23700_24000_N_straight" type="civilianMix" route="r_N_to_S" begin="23700" end="24000" probability="0.07336371341259601" departLane="random" departSpeed="random" departPos="random_free" />
  <flow id="morn5_23700_24000_N_left" type="civilianMix" route="r_N_to_E" begin="23700" end="24000" probability="0.029345425679224525" departLane="random" departSpeed="random" departPos="random_free" />
  <flow id="morn5_23700_24000_N_right" type="civilianMix" route="r_N_to_W" begin="23700" end="24000" probability="0.029345425679224525" departLane="random" departSpeed="random" departPos="random_free" />
  <flow id="morn5_23700_24000_N_uturn" type="civilianMix" route="r_N_to_N" begin="23700" end="24000" probability="0.010942498686912081" departLane="random" departSpeed="random" departPos="random_free" />
  <flow id="morn5_23700_24000_S_straight" type="civilianMix" route="r_S_to_N" begin="23700" end="24000" probability="0.07336371341259601" departLane="random" departSpeed="random" departPos="random_free" />
  <flow id="morn5_23700_24000_S_left" type="civilianMix" route="r_S_to_W" begin="23700" end="24000" probability="0.029345425679224525" departLane="random" departSpeed="random" departPos="random_free" />
  <flow id="morn5_23700_24000_S_right" type="civilianMix" route="r_S_to_E" begin="23700" end="24000" probability="0.029345425679224525" departLane="random" departSpeed="random" departPos="random_free" />
  <flow id="morn5_23700_24000_S_uturn" type="civilianMix" route="r_S_to_S" begin="23700" end="24000" probability="0.010942498686912081" departLane="random" departSpeed="random" departPos="random_free" />
  <flow id="morn5_23700_24000_E_straight" type="civilianMix" route="r_E_to_W" begin="23700" end="24000" probability="0.06465973117509423" departLane="random" departSpeed="random" departPos="random_free" />
  <flow id="morn5_23700_24000_E_left" type="civilianMix" route="r_E_to_S" begin="23700" end="24000" probability="0.026858616244091072" departLane="random" departSpeed="random" departPos="random_free" />
  <flow id="morn5_23700_24000_E_right" type="civilianMix" route="r_E_to_N" begin="23700" end="24000" probability="0.026858616244091072" departLane="random" departSpeed="random" departPos="random_free" />
  <flow id="morn5_23700_24000_E_uturn" type="civilianMix" route="r_E_to_E" begin="23700" end="24000" probability="0.009698944754810665" departLane="random" departSpeed="random" departPos="random_free" />
  <flow id="morn5_23700_24000_W_straight" type="civilianMix" route="r_W_to_E" begin="23700" end="24000" probability="0.06465973117509423" departLane="random" departSpeed="random" departPos="random_free" />
  <flow id="morn5_23700_24000_W_left" type="civilianMix" route="r_W_to_N" begin="23700" end="24000" probability="0.026858616244091072" departLane="random" departSpeed="random" departPos="random_free" />
  <flow id="morn5_23700_24000_W_right" type="civilianMix" route="r_W_to_S" begin="23700" end="24000" probability="0.026858616244091072" departLane="random" departSpeed="random" departPos="random_free" />
  <flow id="morn5_23700_24000_W_uturn" type="civilianMix" route="r_W_to_W" begin="23700" end="24000" probability="0.009698944754810665" departLane="random" departSpeed="random" departPos="random_free" />
  <flow id="morn5_24000_24300_N_straight" type="civilianMix" route="r_N_to_S" begin="24000" end="24300" probability="0.07916666666666657" departLane="random" departSpeed="random" departPos="random_free" />
  <flow id="morn5_24000_24300_N_left" type="civilianMix" route="r_N_to_E" begin="24000" end="24300" probability="0.031666606980852746" departLane="random" departSpeed="random" departPos="random_free" />
  <flow id="morn5_24000_24300_N_right" type="civilianMix" route="r_N_to_W" begin="24000" end="24300" probability="0.031666606980852746" departLane="random" departSpeed="random" departPos="random_free" />
  <flow id="morn5_24000_24300_N_uturn" type="civilianMix" route="r_N_to_N" begin="24000" end="24300" probability="0.01160560807907175" departLane="random" departSpeed="random" departPos="random_free" />
  <flow id="morn5_24000_24300_S_straight" type="civilianMix" route="r_S_to_N" begin="24000" end="24300" probability="0.07916666666666657" departLane="random" departSpeed="random" departPos="random_free" />
  <flow id="morn5_24000_24300_S_left" type="civilianMix" route="r_S_to_W" begin="24000" end="24300" probability="0.031666606980852746" departLane="random" departSpeed="random" departPos="random_free" />