<configuration>
  <input>
    <net-file value="net.net.xml"/>
    <route-files value="route_morning_6to10.rou.xml"/>
    <gui-settings-file value="gui-settings.xml"/>
  </input>
  <time>
    <begin value="21600"/>
    <end value="36000"/>
  </time>
  <report>
    <verbose value="true"/>
  </report>
</configuration>
