<?xml version="1.0" encoding="UTF-8"?>
<edges>
    <edge id="W_in" from="W" to="J1" numLanes="2" speed="13.9"/>
    <edge id="E_in" from="E" to="J1" numLanes="2" speed="13.9"/>
    <edge id="N_in" from="N" to="J1" numLanes="2" speed="13.9"/>
    <edge id="S_in" from="S" to="J1" numLanes="2" speed="13.9"/>

    <edge id="W_out" from="J1" to="W" numLanes="2" speed="13.9"/>
    <edge id="E_out" from="J1" to="E" numLanes="2" speed="13.9"/>
    <edge id="N_out" from="J1" to="N" numLanes="2" speed="13.9"/>
    <edge id="S_out" from="J1" to="S" numLanes="2" speed="13.9"/>
</edges>
