<?xml version='1.0' encoding='UTF-8'?>
<routes>
  <vTypeDistribution id="civilianMix">
    <vType id="moto" vClass="motorcycle" accel="2.6" decel="4.5" length="1.9" minGap="1.0" maxSpeed="16.0" sigma="0.5" speedFactor="normc(1.0,0.12,0.7,1.3)" color="0,255,0" probability="0.4875" />
    <vType id="car" vClass="passenger" accel="2.6" decel="4.5" length="4.5" minGap="2.5" maxSpeed="20.0" sigma="0.5" speedFactor="normc(1.0,0.10,0.7,1.3)" color="255,0,0" probability="0.15" />
    <vType id="truck" vClass="truck" accel="1.3" decel="3.0" length="7.5" minGap="3.0" maxSpeed="16.0" sigma="0.6" speedFactor="normc(0.95,0.08,0.7,1.2)" color="255,165,0" probability="0.0525" />
    <vType id="bus" vClass="bus" accel="1.2" decel="3.0" length="12.0" minGap="3.0" maxSpeed="16.0" sigma="0.6" speedFactor="normc(0.95,0.08,0.7,1.2)" color="0,128,255" probability="0.0375" />
    <vType id="container" vClass="truck" accel="0.9" decel="2.5" length="14.0" minGap="3.5" maxSpeed="14.0" sigma="0.7" speedFactor="normc(0.9,0.07,0.7,1.15)" color="128,64,0" probability="0.0225" />
  </vTypeDistribution>
  <route id="r_N_to_S" edges="N_in S_out" />
  <route id="r_N_to_E" edges="N_in E_out" />
  <route id="r_N_to_W" edges="N_in W_out" />
  <route id="r_N_to_N" edges="N_in N_out" />
  <route id="r_S_to_N" edges="S_in N_out" />
  <route id="r_S_to_W" edges="S_in W_out" />
  <route id="r_S_to_E" edges="S_in E_out" />
  <route id="r_S_to_S" edges="S_in S_out" />
  <route id="r_E_to_W" edges="E_in W_out" />
  <route id="r_E_to_S" edges="E_in S_out" />
  <route id="r_E_to_N" edges="E_in N_out" />
  <route id="r_E_to_E" edges="E_in E_out" />
  <route id="r_W_to_E" edges="W_in E_out" />
  <route id="r_W_to_N" edges="W_in N_out" />
  <route id="r_W_to_S" edges="W_in S_out" />
  <route id="r_W_to_W" edges="W_in W_out" />
  <flow id="flow_1_increasing_0_N_straight" type="civilianMix" route="r_E_to_E" begin="0" end="300" vehsPerHour="573.0" departLane="random" departSpeed="random" departPos="random_free" />
  <flow id="flow_2_increasing_0_N_left" type="civilianMix" route="r_N_to_E" begin="0" end="300" vehsPerHour="245.99999999999997" departLane="random" departSpeed="random" departPos="random_free" />
  <flow id="flow_3_increasing_0_N_right" type="civilianMix" route="r_S_to_E" begin="0" end="300" vehsPerHour="230.39999999999998" departLane="random" departSpeed="random" departPos="random_free" />
  <flow id="flow_4_increasing_0_N_uturn" type="civilianMix" route="r_N_to_N" begin="0" end="300" vehsPerHour="125.39999999999999" departLane="random" departSpeed="random" departPos="random_free" />
  <flow id="flow_5_increasing_0_S_straight" type="civilianMix" route="r_S_to_N" begin="0" end="300" vehsPerHour="603.0" departLane="random" departSpeed="random" departPos="random_free" />
  <flow id="flow_6_increasing_0_S_left" type="civilianMix" route="r_S_to_W" begin="0" end="300" vehsPerHour="241.2" departLane="random" departSpeed="random" departPos="random_free" />
  <flow id="flow_7_increasing_0_S_right" type="civilianMix" route="r_S_to_E" begin="0" end="300" vehsPerHour="245.99999999999997" departLane="random" departSpeed="random" departPos="random_free" />
  <flow id="flow_8_increasing_0_S_uturn" type="civilianMix" route="r_S_to_S" begin="0" end="300" vehsPerHour="113.99999999999999" departLane="random" departSpeed="random" departPos="random_free" />
  <flow id="flow_9_increasing_0_E_straight" type="civilianMix" route="r_E_to_W" begin="0" end="300" vehsPerHour="624.0" departLane="random" departSpeed="random" departPos="random_free" />
  <flow id="flow_10_increasing_0_E_left" type="civilianMix" route="r_E_to_S" begin="0" end="300" vehsPerHour="236.4" departLane="random" departSpeed="random" departPos="random_free" />
  <flow id="flow_11_increasing_0_E_right" type="civilianMix" route="r_E_to_N" begin="0" end="300" vehsPerHour="236.4" departLane="random" departSpeed="random" departPos="random_free" />
  <flow id="flow_12_increasing_0_E_uturn" type="civilianMix" route="r_E_to_S" begin="0" end="300" vehsPerHour="121.8" departLane="random" departSpeed="random" departPos="random_free" />
  <flow id="flow_13_increasing_0_W_straight" type="civilianMix" route="r_W_to_E" begin="0" end="300" vehsPerHour="594.0" departLane="random" departSpeed="random" departPos="random_free" />
  <flow id="flow_14_increasing_0_W_left" type="civilianMix" route="r_W_to_N" begin="0" end="300" vehsPerHour="241.2" departLane="random" departSpeed="random" departPos="random_free" />
  <flow id="flow_15_increasing_0_W_right" type="civilianMix" route="r_W_to_S" begin="0" end="300" vehsPerHour="244.8" departLane="random" departSpeed="random" departPos="random_free" />
  <flow id="flow_16_increasing_0_W_uturn" type="civilianMix" route="r_W_to_W" begin="0" end="300" vehsPerHour="123.6" departLane="random" departSpeed="random" departPos="random_free" />
  <flow id="flow_17_increasing_300_N_straight" type="civilianMix" route="r_W_to_S" begin="300" end="600" vehsPerHour="795.8333333333333" departLane="random" departSpeed="random" departPos="random_free" />
  <flow id="flow_18_increasing_300_N_left" type="civilianMix" route="r_N_to_E" begin="300" end="600" vehsPerHour="334.99999999999994" departLane="random" departSpeed="random" departPos="random_free" />
  <flow id="flow_19_increasing_300_N_right" type="civilianMix" route="r_N_to_W" begin="300" end="600" vehsPerHour="324.99999999999994" departLane="random" departSpeed="random" departPos="random_free" />
  <flow id="flow_20_increasing_300_N_uturn" type="civilianMix" route="r_N_to_N" begin="300" end="600" vehsPerHour="168.33333333333331" departLane="random" departSpeed="random" departPos="random_free" />
  <flow id="flow_21_increasing_300_S_straight" type="civilianMix" route="r_S_to_N" begin="300" end="600" vehsPerHour="808.3333333333333" departLane="random" departSpeed="random" departPos="random_free" />
  <flow id="flow_22_increasing_300_S_left" type="civilianMix" route="r_S_to_W" begin="300" end="600" vehsPerHour="333.33333333333326" departLane="random" departSpeed="random" departPos="random_free" />
  <flow id="flow_23_increasing_300_S_right" type="civilianMix" route="r_S_to_E" begin="300" end="600" vehsPerHour="329.99999999999994" departLane="random" departSpeed="random" departPos="random_free" />
  <flow id="flow_24_increasing_300_S_uturn" type="civilianMix" route="r_S_to_S" begin="300" end="600" vehsPerHour="166.66666666666663" departLane="random" departSpeed="random" departPos="random_free" />
  <flow id="flow_25_increasing_300_E_straight" type="civilianMix" route="r_E_to_W" begin="300" end="600" vehsPerHour="866.6666666666667" departLane="random" departSpeed="random" departPos="random_free" />
  <flow id="flow_26_increasing_300_E_left" type="civilianMix" route="r_E_to_S" begin="300" end="600" vehsPerHour="321.66666666666663" departLane="random" departSpeed="random" departPos="random_free" />
  <flow id="flow_27_increasing_300_E_right" type="civilianMix" route="r_E_to_N" begin="300" end="600" vehsPerHour="348.33333333333326" departLane="random" departSpeed="random" departPos="random_free" />
  <flow id="flow_28_increasing_300_E_uturn" type="civilianMix" route="r_E_to_E" begin="300" end="600" vehsPerHour="168.33333333333331" departLane="random" departSpeed="random" departPos="random_free" />
  <flow id="flow_29_increasing_300_W_straight" type="civilianMix" route="r_W_to_E" begin="300" end="600" vehsPerHour="804.1666666666665" departLane="random" departSpeed="random" departPos="random_free" />
  <flow id="flow_30_increasing_300_W_left" type="civilianMix" route="r_W_to_N" begin="300" end="600" vehsPerHour="316.66666666666663" departLane="random" departSpeed="random" departPos="random_free" />
  <flow id="flow_31_increasing_300_W_right" type="civilianMix" route="r_W_to_S" begin="300" end="600" vehsPerHour="341.6666666666666" departLane="random" departSpeed="random" departPos="random_free" />
  <flow id="flow_32_increasing_300_W_uturn" type="civilianMix" route="r_W_to_W" begin="300" end="600" vehsPerHour="169.99999999999997" departLane="random" departSpeed="random" departPos="random_free" />
  <flow id="flow_33_increasing_600_N_straight" type="civilianMix" route="r_N_to_S" begin="600" end="900" vehsPerHour="1088.0000000000002" departLane="random" departSpeed="random" departPos="random_free" />
  <flow id="flow_34_increasing_600_N_left" type="civilianMix" route="r_N_to_E" begin="600" end="900" vehsPerHour="435.20000000000005" departLane="random" departSpeed="random" departPos="random_free" />
  <flow id="flow_35_increasing_600_N_right" type="civilianMix" route="r_N_to_W" begin="600" end="900" vehsPerHour="416.0" departLane="random" departSpeed="random" departPos="random_free" />
  <flow id="flow_36_increasing_600_N_uturn" type="civilianMix" route="r_N_to_N" begin="600" end="900" vehsPerHour="209.0666666666667" departLane="random" departSpeed="random" departPos="random_free" />
  <flow id="flow_37_increasing_600_S_straight" type="civilianMix" route="r_S_to_N" begin="600" end="900" vehsPerHour="1098.666666666667" departLane="random" departSpeed="random" departPos="random_free" />
  <flow id="flow_38_increasing_600_S_left" type="civilianMix" route="r_S_to_W" begin="600" end="900" vehsPerHour="418.1333333333334" departLane="random" departSpeed="random" departPos="random_free" />
  <flow id="flow_39_increasing_600_S_right" type="civilianMix" route="r_S_to_E" begin="600" end="900" vehsPerHour="445.8666666666667" departLane="random" departSpeed="random" departPos="random_free" />
  <flow id="flow_40_increasing_600_S_uturn" type="civilianMix" route="r_E_to_N" begin="600" end="900" vehsPerHour="222.93333333333334" departLane="random" departSpeed="random" departPos="random_free" />
  <flow id="flow_41_increasing_600_E_straight" type="civilianMix" route="r_E_to_W" begin="600" end="900" vehsPerHour="1088.0000000000002" departLane="random" departSpeed="random" departPos="random_free" />
  <flow id="flow_42_increasing_600_E_left" type="civilianMix" route="r_E_to_S" begin="600" end="900" vehsPerHour="433.06666666666666" departLane="random" departSpeed="random" departPos="random_free" />
  <flow id="flow_43_increasing_600_E_right" type="civilianMix" route="r_E_to_N" begin="600" end="900" vehsPerHour="437.33333333333337" departLane="random" departSpeed="random" departPos="random_free" />
  <flow id="flow_44_increasing_600_E_uturn" type="civilianMix" route="r_E_to_E" begin="600" end="900" vehsPerHour="214.4" departLane="random" departSpeed="random" departPos="random_free" />
  <flow id="flow_45_increasing_600_W_straight" type="civilianMix" route="r_W_to_E" begin="600" end="900" vehsPerHour="1082.6666666666667" departLane="random" departSpeed="random" departPos="random_free" />
  <flow id="flow_46_increasing_600_W_left" type="civilianMix" route="r_W_to_N" begin="600" end="900" vehsPerHour="405.33333333333337" departLane="random" departSpeed="random" departPos="random_free" />
  <flow id="flow_47_increasing_600_W_right" type="civilianMix" route="r_W_to_S" begin="600" end="900" vehsPerHour="424.5333333333334" departLane="random" departSpeed="random" departPos="random_free" />
  <flow id="flow_48_increasing_600_W_uturn" type="civilianMix" route="r_W_to_W" begin="600" end="900" vehsPerHour="208.0" departLane="random" departSpeed="random" departPos="random_free" />
  <flow id="flow_49_increasing_900_N_straight" type="civilianMix" route="r_N_to_S" begin="900" end="1200" vehsPerHour="1247.9999999999998" departLane="random" departSpeed="random" departPos="random_free" />
  <flow id="flow_50_increasing_900_N_left" type="civilianMix" route="r_E_to_N" begin="900" end="1200" vehsPerHour="506.9999999999999" departLane="random" departSpeed="random" departPos="random_free" />
  <flow id="flow_51_increasing_900_N_right" type="civilianMix" route="r_N_to_W" begin="900" end="1200" vehsPerHour="530.3999999999999" departLane="random" departSpeed="random" departPos="random_free" />
  <flow id="flow_52_increasing_900_N_uturn" type="civilianMix" route="r_N_to_N" begin="900" end="1200" vehsPerHour="270.4" departLane="random" departSpeed="random" departPos="random_free" />
  <flow id="flow_53_increasing_900_S_straight" type="civilianMix" route="r_S_to_S" begin="900" end="1200" vehsPerHour="1352.0" departLane="random" departSpeed="random" departPos="random_free" />
  <flow id="flow_54_increasing_900_S_left" type="civilianMix" route="r_S_to_W" begin="900" end="1200" vehsPerHour="530.3999999999999" departLane="random" departSpeed="random" departPos="random_free" />
  <flow id="flow_55_increasing_900_S_right" type="civilianMix" route="r_S_to_E" begin="900" end="1200" vehsPerHour="499.19999999999993" departLane="random" departSpeed="random" departPos="random_free" />
  <flow id="flow_56_increasing_900_S_uturn" type="civilianMix" route="r_S_to_S" begin="900" end="1200" vehsPerHour="270.4" departLane="random" departSpeed="random" departPos="random_free" />
  <flow id="flow_57_increasing_900_E_straight" type="civilianMix" route="r_W_to_W" begin="900" end="1200" vehsPerHour="1241.4999999999995" departLane="random" departSpeed="random" departPos="random_free" />
  <flow id="flow_58_increasing_900_E_left" type="civilianMix" route="r_S_to_S" begin="900" end="1200" vehsPerHour="538.1999999999998" departLane="random" departSpeed="random" departPos="random_free" />
  <flow id="flow_59_increasing_900_E_right" type="civilianMix" route="r_E_to_N" begin="900" end="1200" vehsPerHour="512.1999999999999" departLane="random" departSpeed="random" departPos="random_free" />
  <flow id="flow_60_increasing_900_E_uturn" type="civilianMix" route="r_E_to_E" begin="900" end="1200" vehsPerHour="256.09999999999997" departLane="random" departSpeed="random" departPos="random_free" />
  <flow id="flow_61_increasing_900_W_straight" type="civilianMix" route="r_W_to_E" begin="900" end="1200" vehsPerHour="1306.4999999999995" departLane="random" departSpeed="random" departPos="random_free" />
  <flow id="flow_62_increasing_900_W_left" type="civilianMix" route="r_W_to_N" begin="900" end="1200" vehsPerHour="530.3999999999999" departLane="random" departSpeed="random" departPos="random_free" />
  <flow id="flow_63_increasing_900_W_right" type="civilianMix" route="r_W_to_S" begin="900" end="1200" vehsPerHour="499.19999999999993" departLane="random" departSpeed="random" departPos="random_free" />
  <flow id="flow_64_increasing_900_W_uturn" type="civilianMix" route="r_E_to_E" begin="900" end="1200" vehsPerHour="262.59999999999997" departLane="random" departSpeed="random" departPos="random_free" />
  <flow id="flow_65_increasing_1200_N_straight" type="civilianMix" route="r_W_to_S" begin="1200" end="1500" vehsPerHour="1579.3333333333335" departLane="random" departSpeed="random" departPos="random_free" />
  <flow id="flow_66_increasing_1200_N_left" type="civilianMix" route="r_E_to_W" begin="1200" end="1500" vehsPerHour="631.7333333333333" departLane="random" departSpeed="random" departPos="random_free" />
  <flow id="flow_67_increasing_1200_N_right" type="civilianMix" route="r_N_to_W" begin="1200" end="1500" vehsPerHour="588.8" departLane="random" departSpeed="random" departPos="random_free" />
  <flow id="flow_68_increasing_1200_N_uturn" type="civilianMix" route="r_N_to_N" begin="1200" end="1500" vehsPerHour="312.79999999999995" departLane="random" departSpeed="random" departPos="random_free" />
  <flow id="flow_69_increasing_1200_S_straight" type="civilianMix" route="r_S_to_N" begin="1200" end="1500" vehsPerHour="1548.6666666666667" departLane="random" departSpeed="random" departPos="random_free" />
  <flow id="flow_70_increasing_1200_S_left" type="civilianMix" route="r_S_to_W" begin="1200" end="1500" vehsPerHour="631.7333333333333" departLane="random" departSpeed="random" departPos="random_free" />
  <flow id="flow_71_increasing_1200_S_right" type="civilianMix" route="r_N_to_W" begin="1200" end="1500" vehsPerHour="613.3333333333333" departLane="random" departSpeed="random" departPos="random_free" />
  <flow id="flow_72_increasing_1200_S_uturn" type="civilianMix" route="r_S_to_S" begin="1200" end="1500" vehsPerHour="318.9333333333333" departLane="random" departSpeed="random" departPos="random_free" />
  <flow id="flow_73_increasing_1200_E_straight" type="civilianMix" route="r_E_to_W" begin="1200" end="1500" vehsPerHour="1456.6666666666665" departLane="random" departSpeed="random" departPos="random_free" />
  <flow id="flow_74_increasing_1200_E_left" type="civilianMix" route="r_E_to_S" begin="1200" end="1500" vehsPerHour="622.5333333333332" departLane="random" departSpeed="random" departPos="random_free" />
  <flow id="flow_75_increasing_1200_E_right" type="civilianMix" route="r_E_to_N" begin="1200" end="1500" vehsPerHour="628.6666666666665" departLane="random" departSpeed="random" departPos="random_free" />
  <flow id="flow_76_increasing_1200_E_uturn" type="civilianMix" route="r_N_to_S" begin="1200" end="1500" vehsPerHour="303.59999999999997" departLane="random" departSpeed="random" departPos="random_free" />
  <flow id="flow_77_increasing_1200_W_straight" type="civilianMix" route="r_W_to_E" begin="1200" end="1500" vehsPerHour="1464.3333333333335" departLane="random" departSpeed="random" departPos="random_free" />
  <flow id="flow_78_increasing_1200_W_left" type="civilianMix" route="r_W_to_N" begin="1200" end="1500" vehsPerHour="604.1333333333332" departLane="random" departSpeed="random" departPos="random_free" />
  <flow id="flow_79_increasing_1200_W_right" type="civilianMix" route="r_W_to_S" begin="1200" end="1500" vehsPerHour="613.3333333333333" departLane="random" departSpeed="random" departPos="random_free" />
  <flow id="flow_80_increasing_1200_W_uturn" type="civilianMix" route="r_W_to_W" begin="1200" end="1500" vehsPerHour="312.79999999999995" departLane="random" departSpeed="random" departPos="random_free" />
  <flow id="flow_81_increasing_1500_N_straight" type="civilianMix" route="r_N_to_S" begin="1500" end="1800" vehsPerHour="1766.6666666666665" departLane="random" departSpeed="random" departPos="random_free" />
  <flow id="flow_82_increasing_1500_N_left" type="civilianMix" route="r_N_to_E" begin="1500" end="1800" vehsPerHour="671.3333333333333" departLane="random" departSpeed="random" departPos="random_free" />
  <flow id="flow_83_increasing_1500_N_right" type="civilianMix" route="r_N_to_W" begin="1500" end="1800" vehsPerHour="713.7333333333332" departLane="random" departSpeed="random" departPos="random_free" />
  <flow id="flow_84_increasing_1500_N_uturn" type="civilianMix" route="r_S_to_W" begin="1500" end="1800" vehsPerHour="367.46666666666664" departLane="random" departSpeed="random" departPos="random_free" />
  <flow id="flow_85_increasing_1500_S_straight" type="civilianMix" route="r_E_to_E" begin="1500" end="1800" vehsPerHour="1740.1666666666665" departLane="random" departSpeed="random" departPos="random_free" />
  <flow id="flow_86_increasing_1500_S_left" type="civilianMix" route="r_S_to_W" begin="1500" end="1800" vehsPerHour="717.2666666666664" departLane="random" departSpeed="random" departPos="random_free" />
  <flow id="flow_87_increasing_1500_S_right" type="civilianMix" route="r_S_to_E" begin="1500" end="1800" vehsPerHour="731.3999999999999" departLane="random" departSpeed="random" departPos="random_free" />
  <flow id="flow_88_increasing_1500_S_uturn" type="civilianMix" route="r_E_to_W" begin="1500" end="1800" vehsPerHour="353.33333333333326" departLane="random" departSpeed="random" departPos="random_free" />
  <flow id="flow_89_increasing_1500_E_straight" type="civilianMix" route="r_E_to_W" begin="1500" end="1800" vehsPerHour="1793.1666666666663" departLane="random" departSpeed="random" departPos="random_free" />
  <flow id="flow_90_increasing_1500_E_left" type="civilianMix" route="r_E_to_S" begin="1500" end="1800" vehsPerHour="681.9333333333333" departLane="random" departSpeed="random" departPos="random_free" />
  <flow id="flow_91_increasing_1500_E_right" type="civilianMix" route="r_E_to_N" begin="1500" end="1800" vehsPerHour="671.3333333333333" departLane="random" departSpeed="random" departPos="random_free" />
  <flow id="flow_92_increasing_1500_E_uturn" type="civilianMix" route="r_E_to_E" begin="1500" end="1800" vehsPerHour="335.66666666666663" departLane="random" departSpeed="random" departPos="random_free" />
  <flow id="flow_93_increasing_1500_W_straight" type="civilianMix" route="r_W_to_E" begin="1500" end="1800" vehsPerHour="1713.6666666666665" departLane="random" departSpeed="random" departPos="random_free" />
  <flow id="flow_94_increasing_1500_W_left" type="civilianMix" route="r_W_to_N" begin="1500" end="1800" vehsPerHour="706.6666666666665" departLane="random" departSpeed="random" departPos="random_free" />
  <flow id="flow_95_increasing_1500_W_right" type="civilianMix" route="r_W_to_S" begin="1500" end="1800" vehsPerHour="681.9333333333333" departLane="random" departSpeed="random" departPos="random_free" />
  <flow id="flow_96_increasing_1500_W_uturn" type="civilianMix" route="r_W_to_W" begin="1500" end="1800" vehsPerHour="363.9333333333333" departLane="random" departSpeed="random" departPos="random_free" />
  <flow id="flow_97_peak_1800_N_straight" type="civilianMix" route="r_N_to_S" begin="1800" end="2100" vehsPerHour="3980.0" departLane="random" departSpeed="random" departPos="random_free" />
  <flow id="flow_98_peak_1800_N_left" type="civilianMix" route="r_E_to_W" begin="1800" end="2100" vehsPerHour="1616.0" departLane="random" departSpeed="random" departPos="random_free" />
  <flow id="flow_99_peak_1800_N_right" type="civilianMix" route="r_N_to_W" begin="1800" end="2100" vehsPerHour="1616.0" departLane="random" departSpeed="random" departPos="random_free" />
  <flow id="flow_100_peak_1800_N_uturn" type="civilianMix" route="r_E_to_W" begin="1800" end="2100" vehsPerHour="828.0" departLane="random" departSpeed="random" departPos="random_free" />
  <flow id="flow_101_peak_1800_S_straight" type="civilianMix" route="r_S_to_N" begin="1800" end="2100" vehsPerHour="3860.0" departLane="random" departSpeed="random" departPos="random_free" />
  <flow id="flow_102_peak_1800_S_left" type="civilianMix" route="r_S_to_W" begin="1800" end="2100" vehsPerHour="1656.0" departLane="random" departSpeed="random" departPos="random_free" />
  <flow id="flow_103_peak_1800_S_right" type="civilianMix" route="r_S_to_E" begin="1800" end="2100" vehsPerHour="1623.9999999999998" departLane="random" departSpeed="random" departPos="random_free" />
  <flow id="flow_104_peak_1800_S_uturn" type="civilianMix" route="r_S_to_S" begin="1800" end="2100" vehsPerHour="811.9999999999999" departLane="random" departSpeed="random" departPos="random_free" />
  <flow id="flow_105_peak_1800_E_straight" type="civilianMix" route="r_E_to_W" begin="1800" end="2100" vehsPerHour="3980.0" departLane="random" departSpeed="random" departPos="random_free" />
  <flow id="flow_106_peak_1800_E_left" type="civilianMix" route="r_E_to_S" begin="1800" end="2100" vehsPerHour="1536.0" departLane="random" departSpeed="random" departPos="random_free" />
  <flow id="flow_107_peak_1800_E_right" type="civilianMix" route="r_E_to_N" begin="1800" end="2100" vehsPerHour="1584.0" departLane="random" departSpeed="random" departPos="random_free" />
  <flow id="flow_108_peak_1800_E_uturn" type="civilianMix" route="r_E_to_N" begin="1800" end="2100" vehsPerHour="796.0" departLane="random" departSpeed="random" departPos="random_free" />
  <flow id="flow_109_peak_1800_W_straight" type="civilianMix" route="r_W_to_E" begin="1800" end="2100" vehsPerHour="3960.0" departLane="random" departSpeed="random" departPos="random_free" />
  <flow id="flow_110_peak_1800_W_left" type="civilianMix" route="r_W_to_N" begin="1800" end="2100" vehsPerHour="1584.0" departLane="random" departSpeed="random" departPos="random_free" />
  <flow id="flow_111_peak_1800_W_right" type="civilianMix" route="r_W_to_S" begin="1800" end="2100" vehsPerHour="1656.0" departLane="random" departSpeed="random" departPos="random_free" />
  <flow id="flow_112_peak_1800_W_uturn" type="civilianMix" route="r_W_to_W" begin="1800" end="2100" vehsPerHour="836.0" departLane="random" departSpeed="random" departPos="random_free" />
  <flow id="flow_113_peak_2100_N_straight" type="civilianMix" route="r_N_to_S" begin="2100" end="2400" vehsPerHour="4099.999999999999" departLane="random" departSpeed="random" departPos="random_free" />
  <flow id="flow_114_peak_2100_N_left" type="civilianMix" route="r_N_to_E" begin="2100" end="2400" vehsPerHour="1656.0" departLane="random" departSpeed="random" departPos="random_free" />
  <flow id="flow_115_peak_2100_N_right" type="civilianMix" route="r_E_to_W" begin="2100" end="2400" vehsPerHour="1536.0" departLane="random" departSpeed="random" departPos="random_free" />
  <flow id="flow_116_peak_2100_N_uturn" type="civilianMix" route="r_N_to_N" begin="2100" end="2400" vehsPerHour="768.0" departLane="random" departSpeed="random" departPos="random_free" />
  <flow id="flow_117_peak_2100_S_straight" type="civilianMix" route="r_E_to_N" begin="2100" end="2400" vehsPerHour="4160.0" departLane="random" departSpeed="random" departPos="random_free" />
  <flow id="flow_118_peak_2100_S_left" type="civilianMix" route="r_S_to_W" begin="2100" end="2400" vehsPerHour="1576.0" departLane="random" departSpeed="random" departPos="random_free" />
  <flow id="flow_119_peak_2100_S_right" type="civilianMix" route="r_S_to_E" begin="2100" end="2400" vehsPerHour="1520.0" departLane="random" departSpeed="random" departPos="random_free" />
  <flow id="flow_120_peak_2100_S_uturn" type="civilianMix" route="r_S_to_S" begin="2100" end="2400" vehsPerHour="772.0" departLane="random" departSpeed="random" departPos="random_free" />
  <flow id="flow_121_peak_2100_E_straight" type="civilianMix" route="r_E_to_W" begin="2100" end="2400" vehsPerHour="3880.0" departLane="random" departSpeed="random" departPos="random_free" />
  <flow id="flow_122_peak_2100_E_left" type="civilianMix" route="r_E_to_W" begin="2100" end="2400" vehsPerHour="1672.0" departLane="random" departSpeed="random" departPos="random_free" />
  <flow id="flow_123_peak_2100_E_right" type="civilianMix" route="r_E_to_N" begin="2100" end="2400" vehsPerHour="1536.0" departLane="random" departSpeed="random" departPos="random_free" />
  <flow id="flow_124_peak_2100_E_uturn" type="civilianMix" route="r_E_to_E" begin="2100" end="2400" vehsPerHour="788.0" departLane="random" departSpeed="random" departPos="random_free" />
  <flow id="flow_125_peak_2100_W_straight" type="civilianMix" route="r_N_to_E" begin="2100" end="2400" vehsPerHour="3920.0" departLane="random" departSpeed="random" departPos="random_free" />
  <flow id="flow_126_peak_2100_W_left" type="civilianMix" route="r_W_to_N" begin="2100" end="2400" vehsPerHour="1584.0" departLane="random" departSpeed="random" departPos="random_free" />
  <flow id="flow_127_peak_2100_W_right" type="civilianMix" route="r_W_to_S" begin="2100" end="2400" vehsPerHour="1600.0" departLane="random" departSpeed="random" departPos="random_free" />
  <flow id="flow_128_peak_2100_W_uturn" type="civilianMix" route="r_W_to_W" begin="2100" end="2400" vehsPerHour="816.0" departLane="random" departSpeed="random" departPos="random_free" />
  <flow id="flow_129_peak_2400_N_straight" type="civilianMix" route="r_N_to_S" begin="2400" end="2700" vehsPerHour="3880.0" departLane="random" departSpeed="random" departPos="random_free" />
  <flow id="flow_130_peak_2400_N_left" type="civilianMix" route="r_N_to_E" begin="2400" end="2700" vehsPerHour="1632.0" departLane="random" departSpeed="random" departPos="random_free" />
  <flow id="flow_131_peak_2400_N_right" type="civilianMix" route="r_N_to_W" begin="2400" end="2700" vehsPerHour="1607.9999999999998" departLane="random" departSpeed="random" departPos="random_free" />
  <flow id="flow_132_peak_2400_N_uturn" type="civilianMix" route="r_N_to_N" begin="2400" end="2700" vehsPerHour="828.0" departLane="random" departSpeed="random" departPos="random_free" />
  <flow id="flow_133_peak_2400_S_straight" type="civilianMix" route="r_S_to_N" begin="2400" end="2700" vehsPerHour="3820.0" departLane="random" departSpeed="random" departPos="random_free" />
  <flow id="flow_134_peak_2400_S_left" type="civilianMix" route="r_S_to_W" begin="2400" end="2700" vehsPerHour="1576.0" departLane="random" departSpeed="random" departPos="random_free" />
  <flow id="flow_135_peak_2400_S_right" type="civilianMix" route="r_S_to_E" begin="2400" end="2700" vehsPerHour="1664.0" departLane="random" departSpeed="random" departPos="random_free" />
  <flow id="flow_136_peak_2400_S_uturn" type="civilianMix" route="r_S_to_S" begin="2400" end="2700" vehsPerHour="784.0" departLane="random" departSpeed="random" departPos="random_free" />
  <flow id="flow_137_peak_2400_E_straight" type="civilianMix" route="r_N_to_W" begin="2400" end="2700" vehsPerHour="4040.0" departLane="random" departSpeed="random" departPos="random_free" />
  <flow id="flow_138_peak_2400_E_left" type="civilianMix" route="r_E_to_S" begin="2400" end="2700" vehsPerHour="1600.0" departLane="random" departSpeed="random" departPos="random_free" />
  <flow id="flow_139_peak_2400_E_right" type="civilianMix" route="r_E_to_N" begin="2400" end="2700" vehsPerHour="1664.0" departLane="random" departSpeed="random" departPos="random_free" />
  <flow id="flow_140_peak_2400_E_uturn" type="civilianMix" route="r_E_to_E" begin="2400" end="2700" vehsPerHour="836.0" departLane="random" departSpeed="random" departPos="random_free" />
  <flow id="flow_141_peak_2400_W_straight" type="civilianMix" route="r_W_to_E" begin="2400" end="2700" vehsPerHour="4120.0" departLane="random" departSpeed="random" departPos="random_free" />
  <flow id="flow_142_peak_2400_W_left" type="civilianMix" route="r_W_to_N" begin="2400" end="2700" vehsPerHour="1648.0" departLane="random" departSpeed="random" departPos="random_free" />