<?xml version='1.0' encoding='UTF-8'?>
<routes>
  <vTypeDistribution id="civilianMix">
    <vType id="moto" vClass="motorcycle" accel="2.6" decel="4.5" length="1.9" minGap="1.0" maxSpeed="16.0" sigma="0.5" speedFactor="normc(1.0,0.12,0.7,1.3)" color="0,255,0" probability="0.4875" />
    <vType id="car" vClass="passenger" accel="2.6" decel="4.5" length="4.5" minGap="2.5" maxSpeed="20.0" sigma="0.5" speedFactor="normc(1.0,0.10,0.7,1.3)" color="255,0,0" probability="0.15" />
    <vType id="truck" vClass="truck" accel="1.3" decel="3.0" length="7.5" minGap="3.0" maxSpeed="16.0" sigma="0.6" speedFactor="normc(0.95,0.08,0.7,1.2)" color="255,165,0" probability="0.0525" />
    <vType id="bus" vClass="bus" accel="1.2" decel="3.0" length="12.0" minGap="3.0" maxSpeed="16.0" sigma="0.6" speedFactor="normc(0.95,0.08,0.7,1.2)" color="0,128,255" probability="0.0375" />
    <vType id="container" vClass="truck" accel="0.9" decel="2.5" length="14.0" minGap="3.5" maxSpeed="14.0" sigma="0.7" speedFactor="normc(0.9,0.07,0.7,1.15)" color="128,64,0" probability="0.0225" />
  </vTypeDistribution>
  <route id="r_N_to_S" edges="N_in S_out" />
  <route id="r_N_to_E" edges="N_in E_out" />
  <route id="r_N_to_W" edges="N_in W_out" />
  <route id="r_N_to_N" edges="N_in N_out" />
  <route id="r_S_to_N" edges="S_in N_out" />
  <route id="r_S_to_W" edges="S_in W_out" />
  <route id="r_S_to_E" edges="S_in E_out" />
  <route id="r_S_to_S" edges="S_in S_out" />
  <route id="r_E_to_W" edges="E_in W_out" />
  <route id="r_E_to_S" edges="E_in S_out" />
  <route id="r_E_to_N" edges="E_in N_out" />
  <route id="r_E_to_E" edges="E_in E_out" />
  <route id="r_W_to_E" edges="W_in E_out" />
  <route id="r_W_to_N" edges="W_in N_out" />
  <route id="r_W_to_S" edges="W_in S_out" />
  <route id="r_W_to_W" edges="W_in W_out" />
  <flow id="flow_1_increasing_0_N_straight" type="civilianMix" route="r_N_to_S" begin="0" end="300" vehsPerHour="40.84691841136636" departLane="random" departSpeed="random" departPos="random_free" />
  <flow id="flow_2_increasing_0_N_left" type="civilianMix" route="r_N_to_E" begin="0" end="300" vehsPerHour="17.536373349382416" departLane="random" departSpeed="random" departPos="random_free" />
  <flow id="flow_3_increasing_0_N_right" type="civilianMix" route="r_N_to_W" begin="0" end="300" vehsPerHour="16.424310649177677" departLane="random" departSpeed="random" departPos="random_free" />
  <flow id="flow_4_increasing_0_N_uturn" type="civilianMix" route="r_N_to_N" begin="0" end="300" vehsPerHour="8.939273243953476" departLane="random" departSpeed="random" departPos="random_free" />
  <flow id="flow_5_increasing_0_S_straight" type="civilianMix" route="r_S_to_N" begin="0" end="300" vehsPerHour="42.98550052714471" departLane="random" departSpeed="random" departPos="random_free" />
  <flow id="flow_6_increasing_0_S_left" type="civilianMix" route="r_S_to_W" begin="0" end="300" vehsPerHour="17.194200210857883" departLane="random" departSpeed="random" departPos="random_free" />
  <flow id="flow_7_increasing_0_S_right" type="civilianMix" route="r_W_to_S" begin="0" end="300" vehsPerHour="17.536373349382416" departLane="random" departSpeed="random" departPos="random_free" />
  <flow id="flow_8_increasing_0_S_uturn" type="civilianMix" route="r_S_to_S" begin="0" end="300" vehsPerHour="8.126612039957704" departLane="random" departSpeed="random" departPos="random_free" />
  <flow id="flow_9_increasing_0_E_straight" type="civilianMix" route="r_E_to_W" begin="0" end="300" vehsPerHour="44.482508008189555" departLane="random" departSpeed="random" departPos="random_free" />
  <flow id="flow_10_increasing_0_E_left" type="civilianMix" route="r_E_to_S" begin="0" end="300" vehsPerHour="16.85202707233335" departLane="random" departSpeed="random" departPos="random_free" />
  <flow id="flow_11_increasing_0_E_right" type="civilianMix" route="r_E_to_N" begin="0" end="300" vehsPerHour="16.85202707233335" departLane="random" departSpeed="random" departPos="random_free" />
  <flow id="flow_12_increasing_0_E_uturn" type="civilianMix" route="r_S_to_S" begin="0" end="300" vehsPerHour="8.682643390060075" departLane="random" departSpeed="random" departPos="random_free" />
  <flow id="flow_13_increasing_0_W_straight" type="civilianMix" route="r_W_to_E" begin="0" end="300" vehsPerHour="42.34392589241121" departLane="random" departSpeed="random" departPos="random_free" />
  <flow id="flow_14_increasing_0_W_left" type="civilianMix" route="r_W_to_N" begin="0" end="300" vehsPerHour="17.194200210857883" departLane="random" departSpeed="random" departPos="random_free" />
  <flow id="flow_15_increasing_0_W_right" type="civilianMix" route="r_W_to_S" begin="0" end="300" vehsPerHour="17.450830064751283" departLane="random" departSpeed="random" departPos="random_free" />
  <flow id="flow_16_increasing_0_W_uturn" type="civilianMix" route="r_W_to_W" begin="0" end="300" vehsPerHour="8.810958317006776" departLane="random" departSpeed="random" departPos="random_free" />
  <flow id="flow_17_increasing_300_N_straight" type="civilianMix" route="r_N_to_S" begin="300" end="600" vehsPerHour="56.731831126897724" departLane="random" departSpeed="random" departPos="random_free" />
  <flow id="flow_18_increasing_300_N_left" type="civilianMix" route="r_W_to_S" begin="300" end="600" vehsPerHour="23.8808336261915" departLane="random" departSpeed="random" departPos="random_free" />
  <flow id="flow_19_increasing_300_N_right" type="civilianMix" route="r_N_to_W" begin="300" end="600" vehsPerHour="23.16797292093205" departLane="random" departSpeed="random" departPos="random_free" />
  <flow id="flow_20_increasing_300_N_uturn" type="civilianMix" route="r_S_to_N" begin="300" end="600" vehsPerHour="11.999821871867372" departLane="random" departSpeed="random" departPos="random_free" />
  <flow id="flow_21_increasing_300_S_straight" type="civilianMix" route="r_S_to_N" begin="300" end="600" vehsPerHour="57.62290700847203" departLane="random" departSpeed="random" departPos="random_free" />
  <flow id="flow_22_increasing_300_S_left" type="civilianMix" route="r_S_to_W" begin="300" end="600" vehsPerHour="23.76202350864826" departLane="random" departSpeed="random" departPos="random_free" />
  <flow id="flow_23_increasing_300_S_right" type="civilianMix" route="r_E_to_N" begin="300" end="600" vehsPerHour="23.524403273561774" departLane="random" departSpeed="random" departPos="random_free" />
  <flow id="flow_24_increasing_300_S_uturn" type="civilianMix" route="r_S_to_S" begin="300" end="600" vehsPerHour="11.88101175432413" departLane="random" departSpeed="random" departPos="random_free" />
  <flow id="flow_25_increasing_300_E_straight" type="civilianMix" route="r_W_to_E" begin="300" end="600" vehsPerHour="61.78126112248549" departLane="random" departSpeed="random" departPos="random_free" />
  <flow id="flow_26_increasing_300_E_left" type="civilianMix" route="r_E_to_S" begin="300" end="600" vehsPerHour="22.930352685845573" departLane="random" departSpeed="random" departPos="random_free" />
  <flow id="flow_27_increasing_300_E_right" type="civilianMix" route="r_E_to_N" begin="300" end="600" vehsPerHour="24.831314566537433" departLane="random" departSpeed="random" departPos="random_free" />
  <flow id="flow_28_increasing_300_E_uturn" type="civilianMix" route="r_E_to_E" begin="300" end="600" vehsPerHour="11.999821871867372" departLane="random" departSpeed="random" departPos="random_free" />
  <flow id="flow_29_increasing_300_W_straight" type="civilianMix" route="r_W_to_E" begin="300" end="600" vehsPerHour="57.32588171461393" departLane="random" departSpeed="random" departPos="random_free" />
  <flow id="flow_30_increasing_300_W_left" type="civilianMix" route="r_W_to_N" begin="300" end="600" vehsPerHour="22.573922333215847" departLane="random" departSpeed="random" departPos="random_free" />
  <flow id="flow_31_increasing_300_W_right" type="civilianMix" route="r_W_to_S" begin="300" end="600" vehsPerHour="24.356074096364463" departLane="random" departSpeed="random" departPos="random_free" />
  <flow id="flow_32_increasing_300_W_uturn" type="civilianMix" route="r_W_to_W" begin="300" end="600" vehsPerHour="12.118631989410611" departLane="random" departSpeed="random" departPos="random_free" />
  <flow id="flow_33_increasing_600_N_straight" type="civilianMix" route="r_N_to_S" begin="600" end="900" vehsPerHour="77.55924473222795" departLane="random" departSpeed="random" departPos="random_free" />
  <flow id="flow_34_increasing_600_N_left" type="civilianMix" route="r_N_to_E" begin="600" end="900" vehsPerHour="31.023697892891175" departLane="random" departSpeed="random" departPos="random_free" />
  <flow id="flow_35_increasing_600_N_right" type="civilianMix" route="r_N_to_W" begin="600" end="900" vehsPerHour="29.655005338793032" departLane="random" departSpeed="random" departPos="random_free" />
  <flow id="flow_36_increasing_600_N_uturn" type="civilianMix" route="r_W_to_N" begin="600" end="900" vehsPerHour="14.903541144624192" departLane="random" departSpeed="random" departPos="random_free" />
  <flow id="flow_37_increasing_600_S_straight" type="civilianMix" route="r_S_to_N" begin="600" end="900" vehsPerHour="78.31962948450469" departLane="random" departSpeed="random" departPos="random_free" />
  <flow id="flow_38_increasing_600_S_left" type="civilianMix" route="r_N_to_S" begin="600" end="900" vehsPerHour="29.807082289248385" departLane="random" departSpeed="random" departPos="random_free" />
  <flow id="flow_39_increasing_600_S_right" type="civilianMix" route="r_S_to_E" begin="600" end="900" vehsPerHour="31.784082645167917" departLane="random" departSpeed="random" departPos="random_free" />
  <flow id="flow_40_increasing_600_S_uturn" type="civilianMix" route="r_S_to_S" begin="600" end="900" vehsPerHour="15.892041322583959" departLane="random" departSpeed="random" departPos="random_free" />
  <flow id="flow_41_increasing_600_E_straight" type="civilianMix" route="r_E_to_W" begin="600" end="900" vehsPerHour="77.55924473222795" departLane="random" departSpeed="random" departPos="random_free" />
  <flow id="flow_42_increasing_600_E_left" type="civilianMix" route="r_E_to_S" begin="600" end="900" vehsPerHour="30.871620942435822" departLane="random" departSpeed="random" departPos="random_free" />
  <flow id="flow_43_increasing_600_E_right" type="civilianMix" route="r_E_to_N" begin="600" end="900" vehsPerHour="31.17577484334652" departLane="random" departSpeed="random" departPos="random_free" />
  <flow id="flow_44_increasing_600_E_uturn" type="civilianMix" route="r_E_to_E" begin="600" end="900" vehsPerHour="15.283733520762564" departLane="random" departSpeed="random" departPos="random_free" />
  <flow id="flow_45_increasing_600_W_straight" type="civilianMix" route="r_W_to_E" begin="600" end="900" vehsPerHour="77.17905235608957" departLane="random" departSpeed="random" departPos="random_free" />
  <flow id="flow_46_increasing_600_W_left" type="civilianMix" route="r_W_to_N" begin="600" end="900" vehsPerHour="28.894620586516293" departLane="random" departSpeed="random" departPos="random_free" />
  <flow id="flow_47_increasing_600_W_right" type="civilianMix" route="r_W_to_S" begin="600" end="900" vehsPerHour="30.263313140614432" departLane="random" departSpeed="random" departPos="random_free" />
  <flow id="flow_48_increasing_600_W_uturn" type="civilianMix" route="r_N_to_S" begin="600" end="900" vehsPerHour="14.827502669396516" departLane="random" departSpeed="random" departPos="random_free" />
  <flow id="flow_49_increasing_900_N_straight" type="civilianMix" route="r_E_to_E" begin="900" end="1200" vehsPerHour="88.96501601637908" departLane="random" departSpeed="random" departPos="random_free" />
  <flow id="flow_50_increasing_900_N_left" type="civilianMix" route="r_S_to_E" begin="900" end="1200" vehsPerHour="36.142037756654" departLane="random" departSpeed="random" departPos="random_free" />
  <flow id="flow_51_increasing_900_N_right" type="civilianMix" route="r_N_to_W" begin="900" end="1200" vehsPerHour="37.81013180696111" departLane="random" departSpeed="random" departPos="random_free" />
  <flow id="flow_52_increasing_900_N_uturn" type="civilianMix" route="r_N_to_N" begin="900" end="1200" vehsPerHour="19.275753470215466" departLane="random" departSpeed="random" departPos="random_free" />
  <flow id="flow_53_increasing_900_S_straight" type="civilianMix" route="r_S_to_N" begin="900" end="1200" vehsPerHour="96.37876735107734" departLane="random" departSpeed="random" departPos="random_free" />
  <flow id="flow_54_increasing_900_S_left" type="civilianMix" route="r_S_to_W" begin="900" end="1200" vehsPerHour="37.81013180696111" departLane="random" departSpeed="random" departPos="random_free" />
  <flow id="flow_55_increasing_900_S_right" type="civilianMix" route="r_S_to_E" begin="900" end="1200" vehsPerHour="35.58600640655163" departLane="random" departSpeed="random" departPos="random_free" />
  <flow id="flow_56_increasing_900_S_uturn" type="civilianMix" route="r_S_to_S" begin="900" end="1200" vehsPerHour="19.275753470215466" departLane="random" departSpeed="random" departPos="random_free" />
  <flow id="flow_57_increasing_900_E_straight" type="civilianMix" route="r_E_to_W" begin="900" end="1200" vehsPerHour="88.50165655796043" departLane="random" departSpeed="random" departPos="random_free" />
  <flow id="flow_58_increasing_900_E_left" type="civilianMix" route="r_E_to_S" begin="900" end="1200" vehsPerHour="38.366163157063475" departLane="random" departSpeed="random" departPos="random_free" />
  <flow id="flow_59_increasing_900_E_right" type="civilianMix" route="r_E_to_N" begin="900" end="1200" vehsPerHour="36.51272532338891" departLane="random" departSpeed="random" departPos="random_free" />
  <flow id="flow_60_increasing_900_E_uturn" type="civilianMix" route="r_E_to_E" begin="900" end="1200" vehsPerHour="18.256362661694457" departLane="random" departSpeed="random" departPos="random_free" />
  <flow id="flow_61_increasing_900_W_straight" type="civilianMix" route="r_W_to_E" begin="900" end="1200" vehsPerHour="93.13525114214683" departLane="random" departSpeed="random" departPos="random_free" />
  <flow id="flow_62_increasing_900_W_left" type="civilianMix" route="r_N_to_W" begin="900" end="1200" vehsPerHour="37.81013180696111" departLane="random" departSpeed="random" departPos="random_free" />
  <flow id="flow_63_increasing_900_W_right" type="civilianMix" route="r_W_to_S" begin="900" end="1200" vehsPerHour="35.58600640655163" departLane="random" departSpeed="random" departPos="random_free" />
  <flow id="flow_64_increasing_900_W_uturn" type="civilianMix" route="r_W_to_W" begin="900" end="1200" vehsPerHour="18.7197221201131" departLane="random" departSpeed="random" departPos="random_free" />
  <flow id="flow_65_increasing_1200_N_straight" type="civilianMix" route="r_N_to_S" begin="1200" end="1500" vehsPerHour="112.58446738397548" departLane="random" departSpeed="random" departPos="random_free" />
  <flow id="flow_66_increasing_1200_N_left" type="civilianMix" route="r_N_to_E" begin="1200" end="1500" vehsPerHour="45.03378695359019" departLane="random" departSpeed="random" departPos="random_free" />
  <flow id="flow_67_increasing_1200_N_right" type="civilianMix" route="r_N_to_W" begin="1200" end="1500" vehsPerHour="41.97323832567629" departLane="random" departSpeed="random" departPos="random_free" />
  <flow id="flow_68_increasing_1200_N_uturn" type="civilianMix" route="r_N_to_N" begin="1200" end="1500" vehsPerHour="22.298282860515528" departLane="random" departSpeed="random" departPos="random_free" />
  <flow id="flow_69_increasing_1200_S_straight" type="civilianMix" route="r_S_to_N" begin="1200" end="1500" vehsPerHour="110.39836122117984" departLane="random" departSpeed="random" departPos="random_free" />
  <flow id="flow_70_increasing_1200_S_left" type="civilianMix" route="r_S_to_W" begin="1200" end="1500" vehsPerHour="45.03378695359019" departLane="random" departSpeed="random" departPos="random_free" />
  <flow id="flow_71_increasing_1200_S_right" type="civilianMix" route="r_S_to_E" begin="1200" end="1500" vehsPerHour="43.7221232559128" departLane="random" departSpeed="random" departPos="random_free" />
  <flow id="flow_72_increasing_1200_S_uturn" type="civilianMix" route="r_S_to_S" begin="1200" end="1500" vehsPerHour="22.735504093074656" departLane="random" departSpeed="random" departPos="random_free" />
  <flow id="flow_73_increasing_1200_E_straight" type="civilianMix" route="r_E_to_W" begin="1200" end="1500" vehsPerHour="103.84004273279291" departLane="random" departSpeed="random" departPos="random_free" />
  <flow id="flow_74_increasing_1200_E_left" type="civilianMix" route="r_E_to_S" begin="1200" end="1500" vehsPerHour="44.377955104751486" departLane="random" departSpeed="random" departPos="random_free" />
  <flow id="flow_75_increasing_1200_E_right" type="civilianMix" route="r_N_to_S" begin="1200" end="1500" vehsPerHour="44.81517633731062" departLane="random" departSpeed="random" departPos="random_free" />
  <flow id="flow_76_increasing_1200_E_uturn" type="civilianMix" route="r_E_to_E" begin="1200" end="1500" vehsPerHour="21.642451011676837" departLane="random" departSpeed="random" departPos="random_free" />
  <flow id="flow_77_increasing_1200_W_straight" type="civilianMix" route="r_W_to_E" begin="1200" end="1500" vehsPerHour="104.38656927349182" departLane="random" departSpeed="random" departPos="random_free" />
  <flow id="flow_78_increasing_1200_W_left" type="civilianMix" route="r_W_to_N" begin="1200" end="1500" vehsPerHour="43.066291407074104" departLane="random" departSpeed="random" departPos="random_free" />
  <flow id="flow_79_increasing_1200_W_right" type="civilianMix" route="r_W_to_S" begin="1200" end="1500" vehsPerHour="43.7221232559128" departLane="random" departSpeed="random" departPos="random_free" />
  <flow id="flow_80_increasing_1200_W_uturn" type="civilianMix" route="r_W_to_W" begin="1200" end="1500" vehsPerHour="22.298282860515528" departLane="random" departSpeed="random" departPos="random_free" />
  <flow id="flow_81_increasing_1500_N_straight" type="civilianMix" route="r_N_to_S" begin="1500" end="1800" vehsPerHour="125.9387245958358" departLane="random" departSpeed="random" departPos="random_free" />
  <flow id="flow_82_increasing_1500_N_left" type="civilianMix" route="r_N_to_E" begin="1500" end="1800" vehsPerHour="47.856715346417595" departLane="random" departSpeed="random" departPos="random_free" />
  <flow id="flow_83_increasing_1500_N_right" type="civilianMix" route="r_N_to_W" begin="1500" end="1800" vehsPerHour="50.87924473671765" departLane="random" departSpeed="random" departPos="random_free" />
  <flow id="flow_84_increasing_1500_N_uturn" type="civilianMix" route="r_N_to_N" begin="1500" end="1800" vehsPerHour="26.195254715933842" departLane="random" departSpeed="random" departPos="random_free" />
  <flow id="flow_85_increasing_1500_S_straight" type="civilianMix" route="r_S_to_N" begin="1500" end="1800" vehsPerHour="124.04964372689825" departLane="random" departSpeed="random" departPos="random_free" />
  <flow id="flow_86_increasing_1500_S_left" type="civilianMix" route="r_S_to_W" begin="1500" end="1800" vehsPerHour="51.13112218590932" departLane="random" departSpeed="random" departPos="random_free" />
  <flow id="flow_87_increasing_1500_S_right" type="civilianMix" route="r_S_to_E" begin="1500" end="1800" vehsPerHour="52.13863198267601" departLane="random" departSpeed="random" departPos="random_free" />
  <flow id="flow_88_increasing_1500_S_uturn" type="civilianMix" route="r_S_to_S" begin="1500" end="1800" vehsPerHour="25.187744919167155" departLane="random" departSpeed="random" departPos="random_free" />
  <flow id="flow_89_increasing_1500_E_straight" type="civilianMix" route="r_E_to_W" begin="1500" end="1800" vehsPerHour="127.8278054647733" departLane="random" departSpeed="random" departPos="random_free" />
  <flow id="flow_90_increasing_1500_E_left" type="civilianMix" route="r_E_to_S" begin="1500" end="1800" vehsPerHour="48.61234769399261" departLane="random" departSpeed="random" departPos="random_free" />
  <flow id="flow_91_increasing_1500_E_right" type="civilianMix" route="r_E_to_N" begin="1500" end="1800" vehsPerHour="47.856715346417595" departLane="random" departSpeed="random" departPos="random_free" />
  <flow id="flow_92_increasing_1500_E_uturn" type="civilianMix" route="r_E_to_N" begin="1500" end="1800" vehsPerHour="23.928357673208797" departLane="random" departSpeed="random" departPos="random_free" />
  <flow id="flow_93_increasing_1500_W_straight" type="civilianMix" route="r_W_to_E" begin="1500" end="1800" vehsPerHour="122.1605628579607" departLane="random" departSpeed="random" departPos="random_free" />
  <flow id="flow_94_increasing_1500_W_left" type="civilianMix" route="r_W_to_N" begin="1500" end="1800" vehsPerHour="50.37548983833431" departLane="random" departSpeed="random" departPos="random_free" />
  <flow id="flow_95_increasing_1500_W_right" type="civilianMix" route="r_W_to_S" begin="1500" end="1800" vehsPerHour="48.61234769399261" departLane="random" departSpeed="random" departPos="random_free" />
  <flow id="flow_96_increasing_1500_W_uturn" type="civilianMix" route="r_W_to_W" begin="1500" end="1800" vehsPerHour="25.94337726674217" departLane="random" departSpeed="random" departPos="random_free" />
  <flow id="flow_97_peak_1800_N_straight" type="civilianMix" route="r_S_to_E" begin="1800" end="2100" vehsPerHour="283.71856069326026" departLane="random" departSpeed="random" departPos="random_free" />
  <flow id="flow_98_peak_1800_N_left" type="civilianMix" route="r_N_to_E" begin="1800" end="2100" vehsPerHour="115.19828996992678" departLane="random" departSpeed="random" departPos="random_free" />
  <flow id="flow_99_peak_1800_N_right" type="civilianMix" route="r_N_to_W" begin="1800" end="2100" vehsPerHour="115.19828996992678" departLane="random" departSpeed="random" departPos="random_free" />
  <flow id="flow_100_peak_1800_N_uturn" type="civilianMix" route="r_N_to_N" begin="1800" end="2100" vehsPerHour="59.024866395482285" departLane="random" departSpeed="random" departPos="random_free" />
  <flow id="flow_101_peak_1800_S_straight" type="civilianMix" route="r_S_to_N" begin="1800" end="2100" vehsPerHour="275.16423223014687" departLane="random" departSpeed="random" departPos="random_free" />
  <flow id="flow_102_peak_1800_S_left" type="civilianMix" route="r_E_to_N" begin="1800" end="2100" vehsPerHour="118.04973279096457" departLane="random" departSpeed="random" departPos="random_free" />
  <flow id="flow_103_peak_1800_S_right" type="civilianMix" route="r_S_to_E" begin="1800" end="2100" vehsPerHour="115.76857853413432" departLane="random" departSpeed="random" departPos="random_free" />
  <flow id="flow_104_peak_1800_S_uturn" type="civilianMix" route="r_S_to_S" begin="1800" end="2100" vehsPerHour="57.88428926706716" departLane="random" departSpeed="random" departPos="random_free" />
  <flow id="flow_105_peak_1800_E_straight" type="civilianMix" route="r_W_to_N" begin="1800" end="2100" vehsPerHour="283.71856069326026" departLane="random" departSpeed="random" departPos="random_free" />
  <flow id="flow_106_peak_1800_E_left" type="civilianMix" route="r_E_to_S" begin="1800" end="2100" vehsPerHour="109.49540432785119" departLane="random" departSpeed="random" departPos="random_free" />
  <flow id="flow_107_peak_1800_E_right" type="civilianMix" route="r_E_to_N" begin="1800" end="2100" vehsPerHour="112.91713571309656" departLane="random" departSpeed="random" departPos="random_free" />
  <flow id="flow_108_peak_1800_E_uturn" type="civilianMix" route="r_E_to_E" begin="1800" end="2100" vehsPerHour="56.74371213865205" departLane="random" departSpeed="random" departPos="random_free" />
  <flow id="flow_109_peak_1800_W_straight" type="civilianMix" route="r_W_to_E" begin="1800" end="2100" vehsPerHour="282.29283928274134" departLane="random" departSpeed="random" departPos="random_free" />
  <flow id="flow_110_peak_1800_W_left" type="civilianMix" route="r_W_to_N" begin="1800" end="2100" vehsPerHour="112.91713571309656" departLane="random" departSpeed="random" departPos="random_free" />
  <flow id="flow_111_peak_1800_W_right" type="civilianMix" route="r_W_to_S" begin="1800" end="2100" vehsPerHour="118.04973279096457" departLane="random" departSpeed="random" departPos="random_free" />
  <flow id="flow_112_peak_1800_W_uturn" type="civilianMix" route="r_W_to_W" begin="1800" end="2100" vehsPerHour="59.59515495968984" departLane="random" departSpeed="random" departPos="random_free" />
  <flow id="flow_113_peak_2100_N_straight" type="civilianMix" route="r_N_to_S" begin="2100" end="2400" vehsPerHour="292.2728891563736" departLane="random" departSpeed="random" departPos="random_free" />
  <flow id="flow_114_peak_2100_N_left" type="civilianMix" route="r_N_to_E" begin="2100" end="2400" vehsPerHour="118.04973279096457" departLane="random" departSpeed="random" departPos="random_free" />
  <flow id="flow_115_peak_2100_N_right" type="civilianMix" route="r_N_to_W" begin="2100" end="2400" vehsPerHour="109.49540432785119" departLane="random" departSpeed="random" departPos="random_free" />
  <flow id="flow_116_peak_2100_N_uturn" type="civilianMix" route="r_N_to_N" begin="2100" end="2400" vehsPerHour="54.747702163925595" departLane="random" departSpeed="random" departPos="random_free" />
  <flow id="flow_117_peak_2100_S_straight" type="civilianMix" route="r_S_to_W" begin="2100" end="2400" vehsPerHour="296.55005338793035" departLane="random" departSpeed="random" departPos="random_free" />
  <flow id="flow_118_peak_2100_S_left" type="civilianMix" route="r_S_to_W" begin="2100" end="2400" vehsPerHour="112.34684714888898" departLane="random" departSpeed="random" departPos="random_free" />
  <flow id="flow_119_peak_2100_S_right" type="civilianMix" route="r_S_to_E" begin="2100" end="2400" vehsPerHour="108.35482719943607" departLane="random" departSpeed="random" departPos="random_free" />
  <flow id="flow_120_peak_2100_S_uturn" type="civilianMix" route="r_N_to_W" begin="2100" end="2400" vehsPerHour="55.03284644602938" departLane="random" departSpeed="random" departPos="random_free" />
  <flow id="flow_121_peak_2100_E_straight" type="civilianMix" route="r_E_to_W" begin="2100" end="2400" vehsPerHour="276.5899536406658" departLane="random" departSpeed="random" departPos="random_free" />
  <flow id="flow_122_peak_2100_E_left" type="civilianMix" route="r_E_to_S" begin="2100" end="2400" vehsPerHour="119.19030991937969" departLane="random" departSpeed="random" departPos="random_free" />
  <flow id="flow_123_peak_2100_E_right" type="civilianMix" route="r_E_to_N" begin="2100" end="2400" vehsPerHour="109.49540432785119" departLane="random" departSpeed="random" departPos="random_free" />
  <flow id="flow_124_peak_2100_E_uturn" type="civilianMix" route="r_E_to_E" begin="2100" end="2400" vehsPerHour="56.17342357444449" departLane="random" departSpeed="random" departPos="random_free" />
  <flow id="flow_125_peak_2100_W_straight" type="civilianMix" route="r_W_to_E" begin="2100" end="2400" vehsPerHour="279.44139646170356" departLane="random" departSpeed="random" departPos="random_free" />
  <flow id="flow_126_peak_2100_W_left" type="civilianMix" route="r_W_to_N" begin="2100" end="2400" vehsPerHour="112.91713571309656" departLane="random" departSpeed="random" departPos="random_free" />
  <flow id="flow_127_peak_2100_W_right" type="civilianMix" route="r_S_to_S" begin="2100" end="2400" vehsPerHour="114.05771284151166" departLane="random" departSpeed="random" departPos="random_free" />
  <flow id="flow_128_peak_2100_W_uturn" type="civilianMix" route="r_W_to_W" begin="2100" end="2400" vehsPerHour="58.16943354917095" departLane="random" departSpeed="random" departPos="random_free" />
  <flow id="flow_129_peak_2400_N_straight" type="civilianMix" route="r_N_to_S" begin="2400" end="2700" vehsPerHour="276.5899536406658" departLane="random" departSpeed="random" departPos="random_free" />
  <flow id="flow_130_peak_2400_N_left" type="civilianMix" route="r_N_to_E" begin="2400" end="2700" vehsPerHour="116.3388670983419" departLane="random" departSpeed="random" departPos="random_free" />
  <flow id="flow_131_peak_2400_N_right" type="civilianMix" route="r_E_to_E" begin="2400" end="2700" vehsPerHour="114.6280014057192" departLane="random" departSpeed="random" departPos="random_free" />
  <flow id="flow_132_peak_2400_N_uturn" type="civilianMix" route="r_N_to_N" begin="2400" end="2700" vehsPerHour="59.024866395482285" departLane="random" departSpeed="random" departPos="random_free" />
  <flow id="flow_133_peak_2400_S_straight" type="civilianMix" route="r_S_to_N" begin="2400" end="2700" vehsPerHour="272.3127894091091" departLane="random" departSpeed="random" departPos="random_free" />
  <flow id="flow_134_peak_2400_S_left" type="civilianMix" route="r_S_to_W" begin="2400" end="2700" vehsPerHour="112.34684714888898" departLane="random" departSpeed="random" departPos="random_free" />
  <flow id="flow_135_peak_2400_S_right" type="civilianMix" route="r_S_to_S" begin="2400" end="2700" vehsPerHour="118.62002135517213" departLane="random" departSpeed="random" departPos="random_free" />
  <flow id="flow_136_peak_2400_S_uturn" type="civilianMix" route="r_S_to_S" begin="2400" end="2700" vehsPerHour="55.88827929234072" departLane="random" departSpeed="random" departPos="random_free" />
  <flow id="flow_137_peak_2400_E_straight" type="civilianMix" route="r_E_to_W" begin="2400" end="2700" vehsPerHour="287.99572492481695" departLane="random" departSpeed="random" departPos="random_free" />
  <flow id="flow_138_peak_2400_E_left" type="civilianMix" route="r_E_to_S" begin="2400" end="2700" vehsPerHour="114.05771284151166" departLane="random" departSpeed="random" departPos="random_free" />
  <flow id="flow_139_peak_2400_E_right" type="civilianMix" route="r_E_to_N" begin="2400" end="2700" vehsPerHour="118.62002135517213" departLane="random" departSpeed="random" departPos="random_free" />