<?xml version='1.0' encoding='UTF-8'?>
<routes>
  <vTypeDistribution id="civilianMix">
    <vType id="moto" vClass="motorcycle" accel="2.6" decel="4.5" length="1.9" minGap="1.0" maxSpeed="16.0" sigma="0.5" speedFactor="normc(1.0,0.12,0.7,1.3)" color="0,255,0" probability="0.4875" />
    <vType id="car" vClass="passenger" accel="2.6" decel="4.5" length="4.5" minGap="2.5" maxSpeed="20.0" sigma="0.5" speedFactor="normc(1.0,0.10,0.7,1.3)" color="255,0,0" probability="0.15" />
    <vType id="truck" vClass="truck" accel="1.3" decel="3.0" length="7.5" minGap="3.0" maxSpeed="16.0" sigma="0.6" speedFactor="normc(0.95,0.08,0.7,1.2)" color="255,165,0" probability="0.0525" />
    <vType id="bus" vClass="bus" accel="1.2" decel="3.0" length="12.0" minGap="3.0" maxSpeed="16.0" sigma="0.6" speedFactor="normc(0.95,0.08,0.7,1.2)" color="0,128,255" probability="0.0375" />
    <vType id="container" vClass="truck" accel="0.9" decel="2.5" length="14.0" minGap="3.5" maxSpeed="14.0" sigma="0.7" speedFactor="normc(0.9,0.07,0.7,1.15)" color="128,64,0" probability="0.0225" />
  </vTypeDistribution>
  <route id="r_N_to_S" edges="N_in S_out" />
  <route id="r_N_to_E" edges="N_in E_out" />
  <route id="r_N_to_W" edges="N_in W_out" />
  <route id="r_N_to_N" edges="N_in N_out" />
  <route id="r_S_to_N" edges="S_in N_out" />
  <route id="r_S_to_W" edges="S_in W_out" />
  <route id="r_S_to_E" edges="S_in E_out" />
  <route id="r_S_to_S" edges="S_in S_out" />
  <route id="r_E_to_W" edges="E_in W_out" />
  <route id="r_E_to_S" edges="E_in S_out" />
  <route id="r_E_to_N" edges="E_in N_out" />
  <route id="r_E_to_E" edges="E_in E_out" />
  <route id="r_W_to_E" edges="W_in E_out" />
  <route id="r_W_to_N" edges="W_in N_out" />
  <route id="r_W_to_S" edges="W_in S_out" />
  <route id="r_W_to_W" edges="W_in W_out" />
  <flow id="flow_1_increasing_0_N_straight" type="civilianMix" route="r_N_to_S" begin="0" end="300" vehsPerHour="41.165815336292255" departLane="random" departSpeed="random" departPos="random_free" />
  <flow id="flow_2_increasing_0_N_left" type="civilianMix" route="r_N_to_E" begin="0" end="300" vehsPerHour="17.67328197683751" departLane="random" departSpeed="random" departPos="random_free" />
  <flow id="flow_3_increasing_0_N_right" type="civilianMix" route="r_N_to_W" begin="0" end="300" vehsPerHour="16.552537266111234" departLane="random" departSpeed="random" departPos="random_free" />
  <flow id="flow_4_increasing_0_N_uturn" type="civilianMix" route="r_N_to_N" begin="0" end="300" vehsPerHour="9.009063251607415" departLane="random" departSpeed="random" departPos="random_free" />
  <flow id="flow_5_increasing_0_S_straight" type="civilianMix" route="r_S_to_N" begin="0" end="300" vehsPerHour="43.32109362615049" departLane="random" departSpeed="random" departPos="random_free" />
  <flow id="flow_6_increasing_0_S_left" type="civilianMix" route="r_S_to_W" begin="0" end="300" vehsPerHour="17.328437450460196" departLane="random" departSpeed="random" departPos="random_free" />
  <flow id="flow_7_increasing_0_S_right" type="civilianMix" route="r_S_to_E" begin="0" end="300" vehsPerHour="17.67328197683751" departLane="random" departSpeed="random" departPos="random_free" />
  <flow id="flow_8_increasing_0_S_uturn" type="civilianMix" route="r_S_to_S" begin="0" end="300" vehsPerHour="8.190057501461286" departLane="random" departSpeed="random" departPos="random_free" />
  <flow id="flow_9_increasing_0_E_straight" type="civilianMix" route="r_E_to_W" begin="0" end="300" vehsPerHour="44.82978842905126" departLane="random" departSpeed="random" departPos="random_free" />
  <flow id="flow_10_increasing_0_E_left" type="civilianMix" route="r_E_to_S" begin="0" end="300" vehsPerHour="16.98359292408288" departLane="random" departSpeed="random" departPos="random_free" />
  <flow id="flow_11_increasing_0_E_right" type="civilianMix" route="r_E_to_N" begin="0" end="300" vehsPerHour="16.98359292408288" departLane="random" departSpeed="random" departPos="random_free" />
  <flow id="flow_12_increasing_0_E_uturn" type="civilianMix" route="r_N_to_S" begin="0" end="300" vehsPerHour="8.750429856824427" departLane="random" departSpeed="random" departPos="random_free" />
  <flow id="flow_13_increasing_0_W_straight" type="civilianMix" route="r_W_to_E" begin="0" end="300" vehsPerHour="42.67451013919302" departLane="random" departSpeed="random" departPos="random_free" />
  <flow id="flow_14_increasing_0_W_left" type="civilianMix" route="r_W_to_N" begin="0" end="300" vehsPerHour="17.328437450460196" departLane="random" departSpeed="random" departPos="random_free" />
  <flow id="flow_15_increasing_0_W_right" type="civilianMix" route="r_W_to_S" begin="0" end="300" vehsPerHour="17.587070845243186" departLane="random" departSpeed="random" departPos="random_free" />
  <flow id="flow_16_increasing_0_W_uturn" type="civilianMix" route="r_W_to_W" begin="0" end="300" vehsPerHour="8.879746554215922" departLane="random" departSpeed="random" departPos="random_free" />
  <flow id="flow_17_increasing_300_N_straight" type="civilianMix" route="r_N_to_S" begin="300" end="600" vehsPerHour="57.174743522628134" departLane="random" departSpeed="random" departPos="random_free" />
  <flow id="flow_18_increasing_300_N_left" type="civilianMix" route="r_N_to_E" begin="300" end="600" vehsPerHour="24.06727423675027" departLane="random" departSpeed="random" departPos="random_free" />
  <flow id="flow_19_increasing_300_N_right" type="civilianMix" route="r_N_to_W" begin="300" end="600" vehsPerHour="23.34884814013086" departLane="random" departSpeed="random" departPos="random_free" />
  <flow id="flow_20_increasing_300_N_uturn" type="civilianMix" route="r_N_to_N" begin="300" end="600" vehsPerHour="12.093505959760087" departLane="random" departSpeed="random" departPos="random_free" />
  <flow id="flow_21_increasing_300_S_straight" type="civilianMix" route="r_S_to_N" begin="300" end="600" vehsPerHour="58.0727761434024" departLane="random" departSpeed="random" departPos="random_free" />
  <flow id="flow_22_increasing_300_S_left" type="civilianMix" route="r_S_to_W" begin="300" end="600" vehsPerHour="23.947536553980367" departLane="random" departSpeed="random" departPos="random_free" />
  <flow id="flow_23_increasing_300_S_right" type="civilianMix" route="r_S_to_E" begin="300" end="600" vehsPerHour="23.708061188440563" departLane="random" departSpeed="random" departPos="random_free" />
  <flow id="flow_24_increasing_300_S_uturn" type="civilianMix" route="r_S_to_S" begin="300" end="600" vehsPerHour="11.973768276990183" departLane="random" departSpeed="random" departPos="random_free" />
  <flow id="flow_25_increasing_300_E_straight" type="civilianMix" route="r_E_to_W" begin="300" end="600" vehsPerHour="62.26359504034897" departLane="random" departSpeed="random" departPos="random_free" />
  <flow id="flow_26_increasing_300_E_left" type="civilianMix" route="r_E_to_S" begin="300" end="600" vehsPerHour="23.10937277459106" departLane="random" departSpeed="random" departPos="random_free" />
  <flow id="flow_27_increasing_300_E_right" type="civilianMix" route="r_E_to_N" begin="300" end="600" vehsPerHour="25.025175698909486" departLane="random" departSpeed="random" departPos="random_free" />
  <flow id="flow_28_increasing_300_E_uturn" type="civilianMix" route="r_E_to_E" begin="300" end="600" vehsPerHour="12.093505959760087" departLane="random" departSpeed="random" departPos="random_free" />
  <flow id="flow_29_increasing_300_W_straight" type="civilianMix" route="r_S_to_E" begin="300" end="600" vehsPerHour="57.77343193647764" departLane="random" departSpeed="random" departPos="random_free" />
  <flow id="flow_30_increasing_300_W_left" type="civilianMix" route="r_W_to_N" begin="300" end="600" vehsPerHour="22.75015972628135" departLane="random" departSpeed="random" departPos="random_free" />
  <flow id="flow_31_increasing_300_W_right" type="civilianMix" route="r_W_to_S" begin="300" end="600" vehsPerHour="24.546224967829875" departLane="random" departSpeed="random" departPos="random_free" />
  <flow id="flow_32_increasing_300_W_uturn" type="civilianMix" route="r_W_to_W" begin="300" end="600" vehsPerHour="12.213243642529987" departLane="random" departSpeed="random" departPos="random_free" />
  <flow id="flow_33_increasing_600_N_straight" type="civilianMix" route="r_W_to_W" begin="600" end="900" vehsPerHour="78.16475931219195" departLane="random" departSpeed="random" departPos="random_free" />
  <flow id="flow_34_increasing_600_N_left" type="civilianMix" route="r_N_to_E" begin="600" end="900" vehsPerHour="31.265903724876775" departLane="random" departSpeed="random" departPos="random_free" />
  <flow id="flow_35_increasing_600_N_right" type="civilianMix" route="r_N_to_W" begin="600" end="900" vehsPerHour="29.886525619367504" departLane="random" departSpeed="random" departPos="random_free" />
  <flow id="flow_36_increasing_600_N_uturn" type="civilianMix" route="r_N_to_N" begin="600" end="900" vehsPerHour="15.019894926656491" departLane="random" departSpeed="random" departPos="random_free" />
  <flow id="flow_37_increasing_600_S_straight" type="civilianMix" route="r_S_to_N" begin="600" end="900" vehsPerHour="78.93108048191932" departLane="random" departSpeed="random" departPos="random_free" />
  <flow id="flow_38_increasing_600_S_left" type="civilianMix" route="r_S_to_W" begin="600" end="900" vehsPerHour="30.039789853312982" departLane="random" departSpeed="random" departPos="random_free" />
  <flow id="flow_39_increasing_600_S_right" type="civilianMix" route="r_S_to_N" begin="600" end="900" vehsPerHour="32.03222489460414" departLane="random" departSpeed="random" departPos="random_free" />
  <flow id="flow_40_increasing_600_S_uturn" type="civilianMix" route="r_S_to_S" begin="600" end="900" vehsPerHour="16.01611244730207" departLane="random" departSpeed="random" departPos="random_free" />
  <flow id="flow_41_increasing_600_E_straight" type="civilianMix" route="r_E_to_W" begin="600" end="900" vehsPerHour="78.16475931219195" departLane="random" departSpeed="random" departPos="random_free" />
  <flow id="flow_42_increasing_600_E_left" type="civilianMix" route="r_E_to_S" begin="600" end="900" vehsPerHour="31.112639490931297" departLane="random" departSpeed="random" departPos="random_free" />
  <flow id="flow_43_increasing_600_E_right" type="civilianMix" route="r_E_to_N" begin="600" end="900" vehsPerHour="31.41916795882225" departLane="random" departSpeed="random" departPos="random_free" />
  <flow id="flow_44_increasing_600_E_uturn" type="civilianMix" route="r_E_to_E" begin="600" end="900" vehsPerHour="15.403055511520176" departLane="random" departSpeed="random" departPos="random_free" />
  <flow id="flow_45_increasing_600_W_straight" type="civilianMix" route="r_W_to_S" begin="600" end="900" vehsPerHour="77.78159872732826" departLane="random" departSpeed="random" departPos="random_free" />
  <flow id="flow_46_increasing_600_W_left" type="civilianMix" route="r_W_to_N" begin="600" end="900" vehsPerHour="29.120204449640134" departLane="random" departSpeed="random" departPos="random_free" />
  <flow id="flow_47_increasing_600_W_right" type="civilianMix" route="r_W_to_S" begin="600" end="900" vehsPerHour="30.499582555149406" departLane="random" departSpeed="random" departPos="random_free" />
  <flow id="flow_48_increasing_600_W_uturn" type="civilianMix" route="r_W_to_W" begin="600" end="900" vehsPerHour="14.943262809683752" departLane="random" departSpeed="random" departPos="random_free" />
  <flow id="flow_49_increasing_900_N_straight" type="civilianMix" route="r_N_to_S" begin="900" end="1200" vehsPerHour="89.65957685810248" departLane="random" departSpeed="random" departPos="random_free" />
  <flow id="flow_50_increasing_900_N_left" type="civilianMix" route="r_N_to_E" begin="900" end="1200" vehsPerHour="36.42420309860414" departLane="random" departSpeed="random" departPos="random_free" />
  <flow id="flow_51_increasing_900_N_right" type="civilianMix" route="r_N_to_W" begin="900" end="1200" vehsPerHour="38.10532016469356" departLane="random" departSpeed="random" departPos="random_free" />
  <flow id="flow_52_increasing_900_N_uturn" type="civilianMix" route="r_N_to_N" begin="900" end="1200" vehsPerHour="19.426241652588875" departLane="random" departSpeed="random" departPos="random_free" />
  <flow id="flow_53_increasing_900_S_straight" type="civilianMix" route="r_S_to_N" begin="900" end="1200" vehsPerHour="97.13120826294438" departLane="random" departSpeed="random" departPos="random_free" />
  <flow id="flow_54_increasing_900_S_left" type="civilianMix" route="r_S_to_W" begin="900" end="1200" vehsPerHour="38.10532016469356" departLane="random" departSpeed="random" departPos="random_free" />
  <flow id="flow_55_increasing_900_S_right" type="civilianMix" route="r_S_to_E" begin="900" end="1200" vehsPerHour="35.863830743241" departLane="random" departSpeed="random" departPos="random_free" />
  <flow id="flow_56_increasing_900_S_uturn" type="civilianMix" route="r_S_to_S" begin="900" end="1200" vehsPerHour="19.426241652588875" departLane="random" departSpeed="random" departPos="random_free" />
  <flow id="flow_57_increasing_900_E_straight" type="civilianMix" route="r_E_to_W" begin="900" end="1200" vehsPerHour="89.19259989529986" departLane="random" departSpeed="random" departPos="random_free" />
  <flow id="flow_58_increasing_900_E_left" type="civilianMix" route="r_E_to_S" begin="900" end="1200" vehsPerHour="38.665692520056695" departLane="random" departSpeed="random" departPos="random_free" />
  <flow id="flow_59_increasing_900_E_right" type="civilianMix" route="r_S_to_S" begin="900" end="1200" vehsPerHour="36.797784668846234" departLane="random" departSpeed="random" departPos="random_free" />
  <flow id="flow_60_increasing_900_E_uturn" type="civilianMix" route="r_S_to_W" begin="900" end="1200" vehsPerHour="18.398892334423117" departLane="random" departSpeed="random" departPos="random_free" />
  <flow id="flow_61_increasing_900_W_straight" type="civilianMix" route="r_W_to_E" begin="900" end="1200" vehsPerHour="93.86236952332602" departLane="random" departSpeed="random" departPos="random_free" />
  <flow id="flow_62_increasing_900_W_left" type="civilianMix" route="r_W_to_N" begin="900" end="1200" vehsPerHour="38.10532016469356" departLane="random" departSpeed="random" departPos="random_free" />
  <flow id="flow_63_increasing_900_W_right" type="civilianMix" route="r_W_to_S" begin="900" end="1200" vehsPerHour="35.863830743241" departLane="random" departSpeed="random" departPos="random_free" />
  <flow id="flow_64_increasing_900_W_uturn" type="civilianMix" route="r_W_to_W" begin="900" end="1200" vehsPerHour="18.865869297225736" departLane="random" departSpeed="random" departPos="random_free" />
  <flow id="flow_65_increasing_1200_N_straight" type="civilianMix" route="r_N_to_S" begin="1200" end="1500" vehsPerHour="113.463428192759" departLane="random" departSpeed="random" departPos="random_free" />
  <flow id="flow_66_increasing_1200_N_left" type="civilianMix" route="r_N_to_E" begin="1200" end="1500" vehsPerHour="45.3853712771036" departLane="random" departSpeed="random" departPos="random_free" />
  <flow id="flow_67_increasing_1200_N_right" type="civilianMix" route="r_S_to_E" begin="1200" end="1500" vehsPerHour="42.30092856895092" departLane="random" departSpeed="random" departPos="random_free" />
  <flow id="flow_68_increasing_1200_N_uturn" type="civilianMix" route="r_N_to_N" begin="1200" end="1500" vehsPerHour="22.47236830225518" departLane="random" departSpeed="random" departPos="random_free" />
  <flow id="flow_69_increasing_1200_S_straight" type="civilianMix" route="r_S_to_N" begin="1200" end="1500" vehsPerHour="111.26025482979281" departLane="random" departSpeed="random" departPos="random_free" />
  <flow id="flow_70_increasing_1200_S_left" type="civilianMix" route="r_S_to_W" begin="1200" end="1500" vehsPerHour="45.3853712771036" departLane="random" departSpeed="random" departPos="random_free" />
  <flow id="flow_71_increasing_1200_S_right" type="civilianMix" route="r_S_to_E" begin="1200" end="1500" vehsPerHour="44.06346725932388" departLane="random" departSpeed="random" departPos="random_free" />
  <flow id="flow_72_increasing_1200_S_uturn" type="civilianMix" route="r_S_to_S" begin="1200" end="1500" vehsPerHour="22.913002974848418" departLane="random" departSpeed="random" departPos="random_free" />
  <flow id="flow_73_increasing_1200_E_straight" type="civilianMix" route="r_E_to_W" begin="1200" end="1500" vehsPerHour="104.65073474089422" departLane="random" departSpeed="random" departPos="random_free" />
  <flow id="flow_74_increasing_1200_E_left" type="civilianMix" route="r_E_to_S" begin="1200" end="1500" vehsPerHour="44.72441926821374" departLane="random" departSpeed="random" departPos="random_free" />
  <flow id="flow_75_increasing_1200_E_right" type="civilianMix" route="r_E_to_N" begin="1200" end="1500" vehsPerHour="45.16505394080697" departLane="random" departSpeed="random" departPos="random_free" />
  <flow id="flow_76_increasing_1200_E_uturn" type="civilianMix" route="r_N_to_S" begin="1200" end="1500" vehsPerHour="21.81141629336532" departLane="random" departSpeed="random" departPos="random_free" />
  <flow id="flow_77_increasing_1200_W_straight" type="civilianMix" route="r_W_to_E" begin="1200" end="1500" vehsPerHour="105.20152808163577" departLane="random" departSpeed="random" departPos="random_free" />
  <flow id="flow_78_increasing_1200_W_left" type="civilianMix" route="r_S_to_S" begin="1200" end="1500" vehsPerHour="43.40251525043402" departLane="random" departSpeed="random" departPos="random_free" />
  <flow id="flow_79_increasing_1200_W_right" type="civilianMix" route="r_W_to_S" begin="1200" end="1500" vehsPerHour="44.06346725932388" departLane="random" departSpeed="random" departPos="random_free" />
  <flow id="flow_80_increasing_1200_W_uturn" type="civilianMix" route="r_W_to_W" begin="1200" end="1500" vehsPerHour="22.47236830225518" departLane="random" departSpeed="random" departPos="random_free" />
  <flow id="flow_81_increasing_1500_N_straight" type="civilianMix" route="r_E_to_W" begin="1500" end="1800" vehsPerHour="126.92194373609597" departLane="random" departSpeed="random" departPos="random_free" />
  <flow id="flow_82_increasing_1500_N_left" type="civilianMix" route="r_N_to_E" begin="1500" end="1800" vehsPerHour="48.23033861971646" departLane="random" departSpeed="random" departPos="random_free" />
  <flow id="flow_83_increasing_1500_N_right" type="civilianMix" route="r_N_to_W" begin="1500" end="1800" vehsPerHour="51.27646526938276" departLane="random" departSpeed="random" departPos="random_free" />
  <flow id="flow_84_increasing_1500_N_uturn" type="civilianMix" route="r_N_to_N" begin="1500" end="1800" vehsPerHour="26.399764297107957" departLane="random" departSpeed="random" departPos="random_free" />
  <flow id="flow_85_increasing_1500_S_straight" type="civilianMix" route="r_S_to_N" begin="1500" end="1800" vehsPerHour="125.01811458005452" departLane="random" departSpeed="random" departPos="random_free" />
  <flow id="flow_86_increasing_1500_S_left" type="civilianMix" route="r_S_to_W" begin="1500" end="1800" vehsPerHour="51.53030915685495" departLane="random" departSpeed="random" departPos="random_free" />
  <flow id="flow_87_increasing_1500_S_right" type="civilianMix" route="r_S_to_E" begin="1500" end="1800" vehsPerHour="52.54568470674372" departLane="random" departSpeed="random" departPos="random_free" />
  <flow id="flow_88_increasing_1500_S_uturn" type="civilianMix" route="r_S_to_S" begin="1500" end="1800" vehsPerHour="25.38438874721919" departLane="random" departSpeed="random" departPos="random_free" />
  <flow id="flow_89_increasing_1500_E_straight" type="civilianMix" route="r_E_to_W" begin="1500" end="1800" vehsPerHour="128.8257728921374" departLane="random" departSpeed="random" departPos="random_free" />
  <flow id="flow_90_increasing_1500_E_left" type="civilianMix" route="r_E_to_S" begin="1500" end="1800" vehsPerHour="48.99187028213304" departLane="random" departSpeed="random" departPos="random_free" />
  <flow id="flow_91_increasing_1500_E_right" type="civilianMix" route="r_E_to_N" begin="1500" end="1800" vehsPerHour="48.23033861971646" departLane="random" departSpeed="random" departPos="random_free" />
  <flow id="flow_92_increasing_1500_E_uturn" type="civilianMix" route="r_E_to_E" begin="1500" end="1800" vehsPerHour="24.11516930985823" departLane="random" departSpeed="random" departPos="random_free" />
  <flow id="flow_93_increasing_1500_W_straight" type="civilianMix" route="r_W_to_E" begin="1500" end="1800" vehsPerHour="123.11428542401308" departLane="random" departSpeed="random" departPos="random_free" />
  <flow id="flow_94_increasing_1500_W_left" type="civilianMix" route="r_W_to_N" begin="1500" end="1800" vehsPerHour="50.76877749443838" departLane="random" departSpeed="random" departPos="random_free" />
  <flow id="flow_95_increasing_1500_W_right" type="civilianMix" route="r_W_to_S" begin="1500" end="1800" vehsPerHour="48.99187028213304" departLane="random" departSpeed="random" departPos="random_free" />
  <flow id="flow_96_increasing_1500_W_uturn" type="civilianMix" route="r_W_to_W" begin="1500" end="1800" vehsPerHour="26.145920409635767" departLane="random" departSpeed="random" departPos="random_free" />
  <flow id="flow_97_peak_1800_N_straight" type="civilianMix" route="r_N_to_S" begin="1800" end="2100" vehsPerHour="285.93358645452565" departLane="random" departSpeed="random" departPos="random_free" />
  <flow id="flow_98_peak_1800_N_left" type="civilianMix" route="r_N_to_E" begin="1800" end="2100" vehsPerHour="116.09765721369683" departLane="random" departSpeed="random" departPos="random_free" />
  <flow id="flow_99_peak_1800_N_right" type="civilianMix" route="r_N_to_W" begin="1800" end="2100" vehsPerHour="116.09765721369683" departLane="random" departSpeed="random" departPos="random_free" />
  <flow id="flow_100_peak_1800_N_uturn" type="civilianMix" route="r_N_to_N" begin="1800" end="2100" vehsPerHour="59.48568080008724" departLane="random" departSpeed="random" departPos="random_free" />
  <flow id="flow_101_peak_1800_S_straight" type="civilianMix" route="r_S_to_N" begin="1800" end="2100" vehsPerHour="277.31247329509273" departLane="random" departSpeed="random" departPos="random_free" />
  <flow id="flow_102_peak_1800_S_left" type="civilianMix" route="r_S_to_W" begin="1800" end="2100" vehsPerHour="118.97136160017448" departLane="random" departSpeed="random" departPos="random_free" />
  <flow id="flow_103_peak_1800_S_right" type="civilianMix" route="r_S_to_E" begin="1800" end="2100" vehsPerHour="116.67239809099236" departLane="random" departSpeed="random" departPos="random_free" />
  <flow id="flow_104_peak_1800_S_uturn" type="civilianMix" route="r_N_to_W" begin="1800" end="2100" vehsPerHour="58.33619904549618" departLane="random" departSpeed="random" departPos="random_free" />
  <flow id="flow_105_peak_1800_E_straight" type="civilianMix" route="r_E_to_W" begin="1800" end="2100" vehsPerHour="285.93358645452565" departLane="random" departSpeed="random" departPos="random_free" />
  <flow id="flow_106_peak_1800_E_left" type="civilianMix" route="r_E_to_S" begin="1800" end="2100" vehsPerHour="110.35024844074155" departLane="random" departSpeed="random" departPos="random_free" />
  <flow id="flow_107_peak_1800_E_right" type="civilianMix" route="r_E_to_N" begin="1800" end="2100" vehsPerHour="113.79869370451473" departLane="random" departSpeed="random" departPos="random_free" />
  <flow id="flow_108_peak_1800_E_uturn" type="civilianMix" route="r_E_to_E" begin="1800" end="2100" vehsPerHour="57.18671729090512" departLane="random" departSpeed="random" departPos="random_free" />
  <flow id="flow_109_peak_1800_W_straight" type="civilianMix" route="r_W_to_E" begin="1800" end="2100" vehsPerHour="284.4967342612868" departLane="random" departSpeed="random" departPos="random_free" />
  <flow id="flow_110_peak_1800_W_left" type="civilianMix" route="r_W_to_N" begin="1800" end="2100" vehsPerHour="113.79869370451473" departLane="random" departSpeed="random" departPos="random_free" />
  <flow id="flow_111_peak_1800_W_right" type="civilianMix" route="r_W_to_S" begin="1800" end="2100" vehsPerHour="118.97136160017448" departLane="random" departSpeed="random" departPos="random_free" />
  <flow id="flow_112_peak_1800_W_uturn" type="civilianMix" route="r_W_to_W" begin="1800" end="2100" vehsPerHour="60.06042167738277" departLane="random" departSpeed="random" departPos="random_free" />
  <flow id="flow_113_peak_2100_N_straight" type="civilianMix" route="r_N_to_S" begin="2100" end="2400" vehsPerHour="294.5546996139585" departLane="random" departSpeed="random" departPos="random_free" />
  <flow id="flow_114_peak_2100_N_left" type="civilianMix" route="r_N_to_E" begin="2100" end="2400" vehsPerHour="118.97136160017448" departLane="random" departSpeed="random" departPos="random_free" />
  <flow id="flow_115_peak_2100_N_right" type="civilianMix" route="r_N_to_W" begin="2100" end="2400" vehsPerHour="110.35024844074155" departLane="random" departSpeed="random" departPos="random_free" />
  <flow id="flow_116_peak_2100_N_uturn" type="civilianMix" route="r_N_to_N" begin="2100" end="2400" vehsPerHour="55.175124220370776" departLane="random" departSpeed="random" departPos="random_free" />
  <flow id="flow_117_peak_2100_S_straight" type="civilianMix" route="r_S_to_N" begin="2100" end="2400" vehsPerHour="298.865256193675" departLane="random" departSpeed="random" departPos="random_free" />
  <flow id="flow_118_peak_2100_S_left" type="civilianMix" route="r_S_to_W" begin="2100" end="2400" vehsPerHour="113.2239528272192" departLane="random" departSpeed="random" departPos="random_free" />
  <flow id="flow_119_peak_2100_S_right" type="civilianMix" route="r_S_to_E" begin="2100" end="2400" vehsPerHour="109.2007666861505" departLane="random" departSpeed="random" departPos="random_free" />
  <flow id="flow_120_peak_2100_S_uturn" type="civilianMix" route="r_S_to_S" begin="2100" end="2400" vehsPerHour="55.462494659018546" departLane="random" departSpeed="random" departPos="random_free" />
  <flow id="flow_121_peak_2100_E_straight" type="civilianMix" route="r_E_to_W" begin="2100" end="2400" vehsPerHour="278.7493254883315" departLane="random" departSpeed="random" departPos="random_free" />
  <flow id="flow_122_peak_2100_E_left" type="civilianMix" route="r_E_to_S" begin="2100" end="2400" vehsPerHour="120.12084335476554" departLane="random" departSpeed="random" departPos="random_free" />
  <flow id="flow_123_peak_2100_E_right" type="civilianMix" route="r_E_to_N" begin="2100" end="2400" vehsPerHour="110.35024844074155" departLane="random" departSpeed="random" departPos="random_free" />
  <flow id="flow_124_peak_2100_E_uturn" type="civilianMix" route="r_E_to_E" begin="2100" end="2400" vehsPerHour="56.6119764136096" departLane="random" departSpeed="random" departPos="random_free" />
  <flow id="flow_125_peak_2100_W_straight" type="civilianMix" route="r_W_to_E" begin="2100" end="2400" vehsPerHour="281.62302987480916" departLane="random" departSpeed="random" departPos="random_free" />
  <flow id="flow_126_peak_2100_W_left" type="civilianMix" route="r_W_to_N" begin="2100" end="2400" vehsPerHour="113.79869370451473" departLane="random" departSpeed="random" departPos="random_free" />
  <flow id="flow_127_peak_2100_W_right" type="civilianMix" route="r_W_to_S" begin="2100" end="2400" vehsPerHour="114.94817545910578" departLane="random" departSpeed="random" departPos="random_free" />
  <flow id="flow_128_peak_2100_W_uturn" type="civilianMix" route="r_W_to_W" begin="2100" end="2400" vehsPerHour="58.62356948414394" departLane="random" departSpeed="random" departPos="random_free" />
  <flow id="flow_129_peak_2400_N_straight" type="civilianMix" route="r_N_to_S" begin="2400" end="2700" vehsPerHour="278.7493254883315" departLane="random" departSpeed="random" departPos="random_free" />
  <flow id="flow_130_peak_2400_N_left" type="civilianMix" route="r_N_to_E" begin="2400" end="2700" vehsPerHour="117.24713896828789" departLane="random" departSpeed="random" departPos="random_free" />
  <flow id="flow_131_peak_2400_N_right" type="civilianMix" route="r_E_to_W" begin="2400" end="2700" vehsPerHour="115.5229163364013" departLane="random" departSpeed="random" departPos="random_free" />
  <flow id="flow_132_peak_2400_N_uturn" type="civilianMix" route="r_W_to_E" begin="2400" end="2700" vehsPerHour="59.48568080008724" departLane="random" departSpeed="random" departPos="random_free" />
  <flow id="flow_133_peak_2400_S_straight" type="civilianMix" route="r_S_to_N" begin="2400" end="2700" vehsPerHour="274.43876890861503" departLane="random" departSpeed="random" departPos="random_free" />
  <flow id="flow_134_peak_2400_S_left" type="civilianMix" route="r_S_to_S" begin="2400" end="2700" vehsPerHour="113.2239528272192" departLane="random" departSpeed="random" departPos="random_free" />
  <flow id="flow_135_peak_2400_S_right" type="civilianMix" route="r_S_to_E" begin="2400" end="2700" vehsPerHour="119.54610247747001" departLane="random" departSpeed="random" departPos="random_free" />
  <flow id="flow_136_peak_2400_S_uturn" type="civilianMix" route="r_S_to_S" begin="2400" end="2700" vehsPerHour="56.32460597496184" departLane="random" departSpeed="random" departPos="random_free" />
  <flow id="flow_137_peak_2400_E_straight" type="civilianMix" route="r_E_to_W" begin="2400" end="2700" vehsPerHour="290.2441430342421" departLane="random" departSpeed="random" departPos="random_free" />
  <flow id="flow_138_peak_2400_E_left" type="civilianMix" route="r_E_to_S" begin="2400" end="2700" vehsPerHour="114.94817545910578" departLane="random" departSpeed="random" departPos="random_free" />
  <flow id="flow_139_peak_2400_E_right" type="civilianMix" route="r_E_to_N" begin="2400" end="2700" vehsPerHour="119.54610247747001" departLane="random" departSpeed="random" departPos="random_free" />