<?xml version='1.0' encoding='UTF-8'?>
<routes>
  <vTypeDistribution id="civilianMix">
    <vType id="moto" vClass="motorcycle" accel="2.6" decel="4.5" length="1.9" minGap="1.0" maxSpeed="16.0" sigma="0.5" speedFactor="normc(1.0,0.12,0.7,1.3)" color="0,255,0" probability="0.4875" />
    <vType id="car" vClass="passenger" accel="2.6" decel="4.5" length="4.5" minGap="2.5" maxSpeed="20.0" sigma="0.5" speedFactor="normc(1.0,0.10,0.7,1.3)" color="255,0,0" probability="0.15" />
    <vType id="truck" vClass="truck" accel="1.3" decel="3.0" length="7.5" minGap="3.0" maxSpeed="16.0" sigma="0.6" speedFactor="normc(0.95,0.08,0.7,1.2)" color="255,165,0" probability="0.0525" />
    <vType id="bus" vClass="bus" accel="1.2" decel="3.0" length="12.0" minGap="3.0" maxSpeed="16.0" sigma="0.6" speedFactor="normc(0.95,0.08,0.7,1.2)" color="0,128,255" probability="0.0375" />
    <vType id="container" vClass="truck" accel="0.9" decel="2.5" length="14.0" minGap="3.5" maxSpeed="14.0" sigma="0.7" speedFactor="normc(0.9,0.07,0.7,1.15)" color="128,64,0" probability="0.0225" />
  </vTypeDistribution>
  <route id="r_N_to_S" edges="N_in S_out" />
  <route id="r_N_to_E" edges="N_in E_out" />
  <route id="r_N_to_W" edges="N_in W_out" />
  <route id="r_N_to_N" edges="N_in N_out" />
  <route id="r_S_to_N" edges="S_in N_out" />
  <route id="r_S_to_W" edges="S_in W_out" />
  <route id="r_S_to_E" edges="S_in E_out" />
  <route id="r_S_to_S" edges="S_in S_out" />
  <route id="r_E_to_W" edges="E_in W_out" />
  <route id="r_E_to_S" edges="E_in S_out" />
  <route id="r_E_to_N" edges="E_in N_out" />
  <route id="r_E_to_E" edges="E_in E_out" />
  <route id="r_W_to_E" edges="W_in E_out" />
  <route id="r_W_to_N" edges="W_in N_out" />
  <route id="r_W_to_S" edges="W_in S_out" />
  <route id="r_W_to_W" edges="W_in W_out" />
  <flow id="flow_1_increasing_0_N_straight" type="civilianMix" route="r_N_to_S" begin="0" end="300" vehsPerHour="81.49896002855893" departLane="random" departSpeed="random" departPos="random_free" />
  <flow id="flow_2_increasing_0_N_left" type="civilianMix" route="r_S_to_W" begin="0" end="300" vehsPerHour="34.98908231592582" departLane="random" departSpeed="random" departPos="random_free" />
  <flow id="flow_3_increasing_0_N_right" type="civilianMix" route="r_N_to_W" begin="0" end="300" vehsPerHour="32.77026246174516" departLane="random" departSpeed="random" departPos="random_free" />
  <flow id="flow_4_increasing_0_N_uturn" type="civilianMix" route="r_N_to_N" begin="0" end="300" vehsPerHour="17.835898058606087" departLane="random" departSpeed="random" departPos="random_free" />
  <flow id="flow_5_increasing_0_S_straight" type="civilianMix" route="r_S_to_N" begin="0" end="300" vehsPerHour="85.76592128659865" departLane="random" departSpeed="random" departPos="random_free" />
  <flow id="flow_6_increasing_0_S_left" type="civilianMix" route="r_S_to_W" begin="0" end="300" vehsPerHour="34.30636851463946" departLane="random" departSpeed="random" departPos="random_free" />
  <flow id="flow_7_increasing_0_S_right" type="civilianMix" route="r_S_to_E" begin="0" end="300" vehsPerHour="34.98908231592582" departLane="random" departSpeed="random" departPos="random_free" />
  <flow id="flow_8_increasing_0_S_uturn" type="civilianMix" route="r_S_to_S" begin="0" end="300" vehsPerHour="16.21445278055099" departLane="random" departSpeed="random" departPos="random_free" />
  <flow id="flow_9_increasing_0_E_straight" type="civilianMix" route="r_N_to_W" begin="0" end="300" vehsPerHour="88.75279416722648" departLane="random" departSpeed="random" departPos="random_free" />
  <flow id="flow_10_increasing_0_E_left" type="civilianMix" route="r_E_to_S" begin="0" end="300" vehsPerHour="33.62365471335311" departLane="random" departSpeed="random" departPos="random_free" />
  <flow id="flow_11_increasing_0_E_right" type="civilianMix" route="r_E_to_N" begin="0" end="300" vehsPerHour="33.62365471335311" departLane="random" departSpeed="random" departPos="random_free" />
  <flow id="flow_12_increasing_0_E_uturn" type="civilianMix" route="r_E_to_E" begin="0" end="300" vehsPerHour="17.32386270764132" departLane="random" departSpeed="random" departPos="random_free" />
  <flow id="flow_13_increasing_0_W_straight" type="civilianMix" route="r_W_to_E" begin="0" end="300" vehsPerHour="84.48583290918674" departLane="random" departSpeed="random" departPos="random_free" />
  <flow id="flow_14_increasing_0_W_left" type="civilianMix" route="r_W_to_N" begin="0" end="300" vehsPerHour="34.30636851463946" departLane="random" departSpeed="random" departPos="random_free" />
  <flow id="flow_15_increasing_0_W_right" type="civilianMix" route="r_W_to_W" begin="0" end="300" vehsPerHour="34.81840386560423" departLane="random" departSpeed="random" departPos="random_free" />
  <flow id="flow_16_increasing_0_W_uturn" type="civilianMix" route="r_W_to_N" begin="0" end="300" vehsPerHour="17.579880383123704" departLane="random" departSpeed="random" departPos="random_free" />
  <flow id="flow_17_increasing_300_N_straight" type="civilianMix" route="r_N_to_S" begin="300" end="600" vehsPerHour="113.19300003966516" departLane="random" departSpeed="random" departPos="random_free" />
  <flow id="flow_18_increasing_300_N_left" type="civilianMix" route="r_N_to_E" begin="300" end="600" vehsPerHour="47.64773404811036" departLane="random" departSpeed="random" departPos="random_free" />
  <flow id="flow_19_increasing_300_N_right" type="civilianMix" route="r_N_to_N" begin="300" end="600" vehsPerHour="46.22541362876378" departLane="random" departSpeed="random" departPos="random_free" />
  <flow id="flow_20_increasing_300_N_uturn" type="civilianMix" route="r_N_to_N" begin="300" end="600" vehsPerHour="23.942393725667397" departLane="random" departSpeed="random" departPos="random_free" />
  <flow id="flow_21_increasing_300_S_straight" type="civilianMix" route="r_S_to_N" begin="300" end="600" vehsPerHour="114.97090056384839" departLane="random" departSpeed="random" departPos="random_free" />
  <flow id="flow_22_increasing_300_S_left" type="civilianMix" route="r_S_to_W" begin="300" end="600" vehsPerHour="47.41068064488593" departLane="random" departSpeed="random" departPos="random_free" />
  <flow id="flow_23_increasing_300_S_right" type="civilianMix" route="r_W_to_W" begin="300" end="600" vehsPerHour="46.93657383843707" departLane="random" departSpeed="random" departPos="random_free" />
  <flow id="flow_24_increasing_300_S_uturn" type="civilianMix" route="r_E_to_N" begin="300" end="600" vehsPerHour="23.705340322442964" departLane="random" departSpeed="random" departPos="random_free" />
  <flow id="flow_25_increasing_300_E_straight" type="civilianMix" route="r_E_to_W" begin="300" end="600" vehsPerHour="123.26776967670345" departLane="random" departSpeed="random" departPos="random_free" />
  <flow id="flow_26_increasing_300_E_left" type="civilianMix" route="r_E_to_E" begin="300" end="600" vehsPerHour="45.75130682231493" departLane="random" departSpeed="random" departPos="random_free" />
  <flow id="flow_27_increasing_300_E_right" type="civilianMix" route="r_W_to_N" begin="300" end="600" vehsPerHour="49.5441612739058" departLane="random" departSpeed="random" departPos="random_free" />
  <flow id="flow_28_increasing_300_E_uturn" type="civilianMix" route="r_E_to_E" begin="300" end="600" vehsPerHour="23.942393725667397" departLane="random" departSpeed="random" departPos="random_free" />
  <flow id="flow_29_increasing_300_W_straight" type="civilianMix" route="r_E_to_W" begin="300" end="600" vehsPerHour="114.37826705578732" departLane="random" departSpeed="random" departPos="random_free" />
  <flow id="flow_30_increasing_300_W_left" type="civilianMix" route="r_N_to_E" begin="300" end="600" vehsPerHour="45.040146612641635" departLane="random" departSpeed="random" departPos="random_free" />
  <flow id="flow_31_increasing_300_W_right" type="civilianMix" route="r_W_to_S" begin="300" end="600" vehsPerHour="48.595947661008076" departLane="random" departSpeed="random" departPos="random_free" />
  <flow id="flow_32_increasing_300_W_uturn" type="civilianMix" route="r_W_to_W" begin="300" end="600" vehsPerHour="24.179447128891823" departLane="random" departSpeed="random" departPos="random_free" />
  <flow id="flow_33_increasing_600_N_straight" type="civilianMix" route="r_N_to_S" begin="600" end="900" vehsPerHour="154.74846162490775" departLane="random" departSpeed="random" departPos="random_free" />
  <flow id="flow_34_increasing_600_N_left" type="civilianMix" route="r_N_to_E" begin="600" end="900" vehsPerHour="61.89938464996309" departLane="random" departSpeed="random" departPos="random_free" />
  <flow id="flow_35_increasing_600_N_right" type="civilianMix" route="r_W_to_W" begin="600" end="900" vehsPerHour="59.16852944481765" departLane="random" departSpeed="random" departPos="random_free" />
  <flow id="flow_36_increasing_600_N_uturn" type="civilianMix" route="r_N_to_N" begin="600" end="900" vehsPerHour="29.735978900472464" departLane="random" departSpeed="random" departPos="random_free" />
  <flow id="flow_37_increasing_600_S_straight" type="civilianMix" route="r_E_to_N" begin="600" end="900" vehsPerHour="156.26560340554408" departLane="random" departSpeed="random" departPos="random_free" />
  <flow id="flow_38_increasing_600_S_left" type="civilianMix" route="r_E_to_S" begin="600" end="900" vehsPerHour="59.47195780094493" departLane="random" departSpeed="random" departPos="random_free" />
  <flow id="flow_39_increasing_600_S_right" type="civilianMix" route="r_S_to_E" begin="600" end="900" vehsPerHour="63.41652643059943" departLane="random" departSpeed="random" departPos="random_free" />
  <flow id="flow_40_increasing_600_S_uturn" type="civilianMix" route="r_S_to_S" begin="600" end="900" vehsPerHour="31.708263215299716" departLane="random" departSpeed="random" departPos="random_free" />
  <flow id="flow_41_increasing_600_E_straight" type="civilianMix" route="r_E_to_W" begin="600" end="900" vehsPerHour="154.74846162490775" departLane="random" departSpeed="random" departPos="random_free" />
  <flow id="flow_42_increasing_600_E_left" type="civilianMix" route="r_E_to_S" begin="600" end="900" vehsPerHour="61.59595629383581" departLane="random" departSpeed="random" departPos="random_free" />
  <flow id="flow_43_increasing_600_E_right" type="civilianMix" route="r_E_to_N" begin="600" end="900" vehsPerHour="62.20281300609035" departLane="random" departSpeed="random" departPos="random_free" />
  <flow id="flow_44_increasing_600_E_uturn" type="civilianMix" route="r_E_to_S" begin="600" end="900" vehsPerHour="30.494549790790636" departLane="random" departSpeed="random" departPos="random_free" />
  <flow id="flow_45_increasing_600_W_straight" type="civilianMix" route="r_W_to_E" begin="600" end="900" vehsPerHour="153.98989073458955" departLane="random" departSpeed="random" departPos="random_free" />
  <flow id="flow_46_increasing_600_W_left" type="civilianMix" route="r_W_to_N" begin="600" end="900" vehsPerHour="57.65138766418131" departLane="random" departSpeed="random" departPos="random_free" />
  <flow id="flow_47_increasing_600_W_right" type="civilianMix" route="r_N_to_E" begin="600" end="900" vehsPerHour="60.38224286932674" departLane="random" departSpeed="random" departPos="random_free" />
  <flow id="flow_48_increasing_600_W_uturn" type="civilianMix" route="r_S_to_N" begin="600" end="900" vehsPerHour="29.584264722408825" departLane="random" departSpeed="random" departPos="random_free" />
  <flow id="flow_49_increasing_900_N_straight" type="civilianMix" route="r_N_to_S" begin="900" end="1200" vehsPerHour="177.5055883344529" departLane="random" departSpeed="random" departPos="random_free" />
  <flow id="flow_50_increasing_900_N_left" type="civilianMix" route="r_N_to_E" begin="900" end="1200" vehsPerHour="72.1116452608715" departLane="random" departSpeed="random" departPos="random_free" />
  <flow id="flow_51_increasing_900_N_right" type="civilianMix" route="r_E_to_E" begin="900" end="1200" vehsPerHour="75.43987504214249" departLane="random" departSpeed="random" departPos="random_free" />
  <flow id="flow_52_increasing_900_N_uturn" type="civilianMix" route="r_N_to_N" begin="900" end="1200" vehsPerHour="38.45954413913147" departLane="random" departSpeed="random" departPos="random_free" />
  <flow id="flow_53_increasing_900_S_straight" type="civilianMix" route="r_W_to_N" begin="900" end="1200" vehsPerHour="192.29772069565735" departLane="random" departSpeed="random" departPos="random_free" />
  <flow id="flow_54_increasing_900_S_left" type="civilianMix" route="r_W_to_W" begin="900" end="1200" vehsPerHour="75.43987504214249" departLane="random" departSpeed="random" departPos="random_free" />
  <flow id="flow_55_increasing_900_S_right" type="civilianMix" route="r_S_to_E" begin="900" end="1200" vehsPerHour="71.00223533378117" departLane="random" departSpeed="random" departPos="random_free" />
  <flow id="flow_56_increasing_900_S_uturn" type="civilianMix" route="r_S_to_S" begin="900" end="1200" vehsPerHour="38.45954413913147" departLane="random" departSpeed="random" departPos="random_free" />
  <flow id="flow_57_increasing_900_E_straight" type="civilianMix" route="r_E_to_W" begin="900" end="1200" vehsPerHour="176.58108006187763" departLane="random" departSpeed="random" departPos="random_free" />
  <flow id="flow_58_increasing_900_E_left" type="civilianMix" route="r_E_to_S" begin="900" end="1200" vehsPerHour="76.54928496923282" departLane="random" departSpeed="random" departPos="random_free" />
  <flow id="flow_59_increasing_900_E_right" type="civilianMix" route="r_E_to_N" begin="900" end="1200" vehsPerHour="72.85125187893172" departLane="random" departSpeed="random" departPos="random_free" />
  <flow id="flow_60_increasing_900_E_uturn" type="civilianMix" route="r_E_to_N" begin="900" end="1200" vehsPerHour="36.42562593946586" departLane="random" departSpeed="random" departPos="random_free" />
  <flow id="flow_61_increasing_900_W_straight" type="civilianMix" route="r_N_to_W" begin="900" end="1200" vehsPerHour="185.82616278763035" departLane="random" departSpeed="random" departPos="random_free" />
  <flow id="flow_62_increasing_900_W_left" type="civilianMix" route="r_N_to_S" begin="900" end="1200" vehsPerHour="75.43987504214249" departLane="random" departSpeed="random" departPos="random_free" />
  <flow id="flow_63_increasing_900_W_right" type="civilianMix" route="r_W_to_S" begin="900" end="1200" vehsPerHour="71.00223533378117" departLane="random" departSpeed="random" departPos="random_free" />
  <flow id="flow_64_increasing_900_W_uturn" type="civilianMix" route="r_W_to_W" begin="900" end="1200" vehsPerHour="37.35013421204114" departLane="random" departSpeed="random" departPos="random_free" />
  <flow id="flow_65_increasing_1200_N_straight" type="civilianMix" route="r_N_to_S" begin="1200" end="1500" vehsPerHour="224.63180489546957" departLane="random" departSpeed="random" departPos="random_free" />
  <flow id="flow_66_increasing_1200_N_left" type="civilianMix" route="r_W_to_W" begin="1200" end="1500" vehsPerHour="89.85272195818783" departLane="random" departSpeed="random" departPos="random_free" />
  <flow id="flow_67_increasing_1200_N_right" type="civilianMix" route="r_N_to_W" begin="1200" end="1500" vehsPerHour="83.74622629112652" departLane="random" departSpeed="random" departPos="random_free" />
  <flow id="flow_68_increasing_1200_N_uturn" type="civilianMix" route="r_N_to_E" begin="1200" end="1500" vehsPerHour="44.49018271716096" departLane="random" departSpeed="random" departPos="random_free" />
  <flow id="flow_69_increasing_1200_S_straight" type="civilianMix" route="r_E_to_N" begin="1200" end="1500" vehsPerHour="220.27002227614008" departLane="random" departSpeed="random" departPos="random_free" />
  <flow id="flow_70_increasing_1200_S_left" type="civilianMix" route="r_E_to_E" begin="1200" end="1500" vehsPerHour="89.85272195818783" departLane="random" departSpeed="random" departPos="random_free" />
  <flow id="flow_71_increasing_1200_S_right" type="civilianMix" route="r_S_to_E" begin="1200" end="1500" vehsPerHour="87.23565238659012" departLane="random" departSpeed="random" departPos="random_free" />
  <flow id="flow_72_increasing_1200_S_uturn" type="civilianMix" route="r_N_to_W" begin="1200" end="1500" vehsPerHour="45.362539241026866" departLane="random" departSpeed="random" departPos="random_free" />
  <flow id="flow_73_increasing_1200_E_straight" type="civilianMix" route="r_E_to_W" begin="1200" end="1500" vehsPerHour="207.18467441815153" departLane="random" departSpeed="random" departPos="random_free" />
  <flow id="flow_74_increasing_1200_E_left" type="civilianMix" route="r_E_to_S" begin="1200" end="1500" vehsPerHour="88.54418717238896" departLane="random" departSpeed="random" departPos="random_free" />
  <flow id="flow_75_increasing_1200_E_right" type="civilianMix" route="r_S_to_E" begin="1200" end="1500" vehsPerHour="89.41654369625486" departLane="random" departSpeed="random" departPos="random_free" />
  <flow id="flow_76_increasing_1200_E_uturn" type="civilianMix" route="r_E_to_E" begin="1200" end="1500" vehsPerHour="43.18164793136211" departLane="random" departSpeed="random" departPos="random_free" />
  <flow id="flow_77_increasing_1200_W_straight" type="civilianMix" route="r_W_to_E" begin="1200" end="1500" vehsPerHour="208.27512007298392" departLane="random" departSpeed="random" departPos="random_free" />
  <flow id="flow_78_increasing_1200_W_left" type="civilianMix" route="r_N_to_S" begin="1200" end="1500" vehsPerHour="85.92711760079126" departLane="random" departSpeed="random" departPos="random_free" />
  <flow id="flow_79_increasing_1200_W_right" type="civilianMix" route="r_S_to_W" begin="1200" end="1500" vehsPerHour="87.23565238659012" departLane="random" departSpeed="random" departPos="random_free" />
  <flow id="flow_80_increasing_1200_W_uturn" type="civilianMix" route="r_W_to_W" begin="1200" end="1500" vehsPerHour="44.49018271716096" departLane="random" departSpeed="random" departPos="random_free" />
  <flow id="flow_81_increasing_1500_N_straight" type="civilianMix" route="r_N_to_S" begin="1500" end="1800" vehsPerHour="251.27660741789546" departLane="random" departSpeed="random" departPos="random_free" />
  <flow id="flow_82_increasing_1500_N_left" type="civilianMix" route="r_N_to_E" begin="1500" end="1800" vehsPerHour="95.48511081880027" departLane="random" departSpeed="random" departPos="random_free" />
  <flow id="flow_83_increasing_1500_N_right" type="civilianMix" route="r_N_to_W" begin="1500" end="1800" vehsPerHour="101.51574939682975" departLane="random" departSpeed="random" departPos="random_free" />
  <flow id="flow_84_increasing_1500_N_uturn" type="civilianMix" route="r_E_to_S" begin="1500" end="1800" vehsPerHour="52.26553434292225" departLane="random" departSpeed="random" departPos="random_free" />
  <flow id="flow_85_increasing_1500_S_straight" type="civilianMix" route="r_N_to_N" begin="1500" end="1800" vehsPerHour="247.50745830662703" departLane="random" departSpeed="random" departPos="random_free" />
  <flow id="flow_86_increasing_1500_S_left" type="civilianMix" route="r_S_to_W" begin="1500" end="1800" vehsPerHour="102.01830261166553" departLane="random" departSpeed="random" departPos="random_free" />
  <flow id="flow_87_increasing_1500_S_right" type="civilianMix" route="r_W_to_S" begin="1500" end="1800" vehsPerHour="104.0285154710087" departLane="random" departSpeed="random" departPos="random_free" />
  <flow id="flow_88_increasing_1500_S_uturn" type="civilianMix" route="r_S_to_S" begin="1500" end="1800" vehsPerHour="50.25532148357909" departLane="random" departSpeed="random" departPos="random_free" />
  <flow id="flow_89_increasing_1500_E_straight" type="civilianMix" route="r_W_to_N" begin="1500" end="1800" vehsPerHour="255.04575652916387" departLane="random" departSpeed="random" departPos="random_free" />
  <flow id="flow_90_increasing_1500_E_left" type="civilianMix" route="r_E_to_S" begin="1500" end="1800" vehsPerHour="96.99277046330765" departLane="random" departSpeed="random" departPos="random_free" />
  <flow id="flow_91_increasing_1500_E_right" type="civilianMix" route="r_W_to_N" begin="1500" end="1800" vehsPerHour="95.48511081880027" departLane="random" departSpeed="random" departPos="random_free" />
  <flow id="flow_92_increasing_1500_E_uturn" type="civilianMix" route="r_E_to_E" begin="1500" end="1800" vehsPerHour="47.74255540940013" departLane="random" departSpeed="random" departPos="random_free" />
  <flow id="flow_93_increasing_1500_W_straight" type="civilianMix" route="r_W_to_E" begin="1500" end="1800" vehsPerHour="243.73830919535857" departLane="random" departSpeed="random" departPos="random_free" />
  <flow id="flow_94_increasing_1500_W_left" type="civilianMix" route="r_S_to_W" begin="1500" end="1800" vehsPerHour="100.51064296715818" departLane="random" departSpeed="random" departPos="random_free" />
  <flow id="flow_95_increasing_1500_W_right" type="civilianMix" route="r_W_to_S" begin="1500" end="1800" vehsPerHour="96.99277046330765" departLane="random" departSpeed="random" departPos="random_free" />
  <flow id="flow_96_increasing_1500_W_uturn" type="civilianMix" route="r_W_to_W" begin="1500" end="1800" vehsPerHour="51.762981128086466" departLane="random" departSpeed="random" departPos="random_free" />
  <flow id="flow_97_peak_1800_N_straight" type="civilianMix" route="r_N_to_S" begin="1800" end="2100" vehsPerHour="566.0835268999381" departLane="random" departSpeed="random" departPos="random_free" />
  <flow id="flow_98_peak_1800_N_left" type="civilianMix" route="r_N_to_E" begin="1800" end="2100" vehsPerHour="229.84697976640703" departLane="random" departSpeed="random" departPos="random_free" />
  <flow id="flow_99_peak_1800_N_right" type="civilianMix" route="r_S_to_W" begin="1800" end="2100" vehsPerHour="229.84697976640703" departLane="random" departSpeed="random" departPos="random_free" />
  <flow id="flow_100_peak_1800_N_uturn" type="civilianMix" route="r_N_to_N" begin="1800" end="2100" vehsPerHour="117.76813072189667" departLane="random" departSpeed="random" departPos="random_free" />
  <flow id="flow_101_peak_1800_S_straight" type="civilianMix" route="r_S_to_N" begin="1800" end="2100" vehsPerHour="549.0156818677792" departLane="random" departSpeed="random" departPos="random_free" />
  <flow id="flow_102_peak_1800_S_left" type="civilianMix" route="r_S_to_W" begin="1800" end="2100" vehsPerHour="235.53626144379334" departLane="random" departSpeed="random" departPos="random_free" />
  <flow id="flow_103_peak_1800_S_right" type="civilianMix" route="r_W_to_N" begin="1800" end="2100" vehsPerHour="230.98483610188427" departLane="random" departSpeed="random" departPos="random_free" />
  <flow id="flow_104_peak_1800_S_uturn" type="civilianMix" route="r_S_to_S" begin="1800" end="2100" vehsPerHour="115.49241805094213" departLane="random" departSpeed="random" departPos="random_free" />
  <flow id="flow_105_peak_1800_E_straight" type="civilianMix" route="r_E_to_W" begin="1800" end="2100" vehsPerHour="566.0835268999381" departLane="random" departSpeed="random" departPos="random_free" />
  <flow id="flow_106_peak_1800_E_left" type="civilianMix" route="r_E_to_S" begin="1800" end="2100" vehsPerHour="218.4684164116344" departLane="random" departSpeed="random" departPos="random_free" />
  <flow id="flow_107_peak_1800_E_right" type="civilianMix" route="r_E_to_N" begin="1800" end="2100" vehsPerHour="225.295554424498" departLane="random" departSpeed="random" departPos="random_free" />
  <flow id="flow_108_peak_1800_E_uturn" type="civilianMix" route="r_E_to_E" begin="1800" end="2100" vehsPerHour="113.21670537998762" departLane="random" departSpeed="random" departPos="random_free" />
  <flow id="flow_109_peak_1800_W_straight" type="civilianMix" route="r_W_to_E" begin="1800" end="2100" vehsPerHour="563.2388860612449" departLane="random" departSpeed="random" departPos="random_free" />
  <flow id="flow_110_peak_1800_W_left" type="civilianMix" route="r_W_to_N" begin="1800" end="2100" vehsPerHour="225.295554424498" departLane="random" departSpeed="random" departPos="random_free" />
  <flow id="flow_111_peak_1800_W_right" type="civilianMix" route="r_W_to_S" begin="1800" end="2100" vehsPerHour="235.53626144379334" departLane="random" departSpeed="random" departPos="random_free" />
  <flow id="flow_112_peak_1800_W_uturn" type="civilianMix" route="r_W_to_W" begin="1800" end="2100" vehsPerHour="118.90598705737392" departLane="random" departSpeed="random" departPos="random_free" />
  <flow id="flow_113_peak_2100_N_straight" type="civilianMix" route="r_N_to_S" begin="2100" end="2400" vehsPerHour="583.1513719320969" departLane="random" departSpeed="random" departPos="random_free" />
  <flow id="flow_114_peak_2100_N_left" type="civilianMix" route="r_N_to_E" begin="2100" end="2400" vehsPerHour="235.53626144379334" departLane="random" departSpeed="random" departPos="random_free" />
  <flow id="flow_115_peak_2100_N_right" type="civilianMix" route="r_N_to_S" begin="2100" end="2400" vehsPerHour="218.4684164116344" departLane="random" departSpeed="random" departPos="random_free" />
  <flow id="flow_116_peak_2100_N_uturn" type="civilianMix" route="r_S_to_N" begin="2100" end="2400" vehsPerHour="109.2342082058172" departLane="random" departSpeed="random" departPos="random_free" />
  <flow id="flow_117_peak_2100_S_straight" type="civilianMix" route="r_S_to_W" begin="2100" end="2400" vehsPerHour="591.6852944481765" departLane="random" departSpeed="random" departPos="random_free" />
  <flow id="flow_118_peak_2100_S_left" type="civilianMix" route="r_S_to_W" begin="2100" end="2400" vehsPerHour="224.1576980890207" departLane="random" departSpeed="random" departPos="random_free" />
  <flow id="flow_119_peak_2100_S_right" type="civilianMix" route="r_S_to_E" begin="2100" end="2400" vehsPerHour="216.1927037406799" departLane="random" departSpeed="random" departPos="random_free" />
  <flow id="flow_120_peak_2100_S_uturn" type="civilianMix" route="r_S_to_S" begin="2100" end="2400" vehsPerHour="109.80313637355584" departLane="random" departSpeed="random" departPos="random_free" />
  <flow id="flow_121_peak_2100_E_straight" type="civilianMix" route="r_E_to_W" begin="2100" end="2400" vehsPerHour="551.8603227064723" departLane="random" departSpeed="random" departPos="random_free" />
  <flow id="flow_122_peak_2100_E_left" type="civilianMix" route="r_E_to_S" begin="2100" end="2400" vehsPerHour="237.81197411474784" departLane="random" departSpeed="random" departPos="random_free" />
  <flow id="flow_123_peak_2100_E_right" type="civilianMix" route="r_E_to_N" begin="2100" end="2400" vehsPerHour="218.4684164116344" departLane="random" departSpeed="random" departPos="random_free" />
  <flow id="flow_124_peak_2100_E_uturn" type="civilianMix" route="r_E_to_E" begin="2100" end="2400" vehsPerHour="112.07884904451035" departLane="random" departSpeed="random" departPos="random_free" />
  <flow id="flow_125_peak_2100_W_straight" type="civilianMix" route="r_W_to_E" begin="2100" end="2400" vehsPerHour="557.5496043838587" departLane="random" departSpeed="random" departPos="random_free" />
  <flow id="flow_126_peak_2100_W_left" type="civilianMix" route="r_W_to_N" begin="2100" end="2400" vehsPerHour="225.295554424498" departLane="random" departSpeed="random" departPos="random_free" />
  <flow id="flow_127_peak_2100_W_right" type="civilianMix" route="r_W_to_S" begin="2100" end="2400" vehsPerHour="227.5712670954525" departLane="random" departSpeed="random" departPos="random_free" />
  <flow id="flow_128_peak_2100_W_uturn" type="civilianMix" route="r_W_to_W" begin="2100" end="2400" vehsPerHour="116.06134621868077" departLane="random" departSpeed="random" departPos="random_free" />
  <flow id="flow_129_peak_2400_N_straight" type="civilianMix" route="r_N_to_S" begin="2400" end="2700" vehsPerHour="551.8603227064723" departLane="random" departSpeed="random" departPos="random_free" />
  <flow id="flow_130_peak_2400_N_left" type="civilianMix" route="r_N_to_E" begin="2400" end="2700" vehsPerHour="232.12269243736154" departLane="random" departSpeed="random" departPos="random_free" />
  <flow id="flow_131_peak_2400_N_right" type="civilianMix" route="r_N_to_W" begin="2400" end="2700" vehsPerHour="228.70912343092974" departLane="random" departSpeed="random" departPos="random_free" />
  <flow id="flow_132_peak_2400_N_uturn" type="civilianMix" route="r_N_to_N" begin="2400" end="2700" vehsPerHour="117.76813072189667" departLane="random" departSpeed="random" departPos="random_free" />
  <flow id="flow_133_peak_2400_S_straight" type="civilianMix" route="r_S_to_N" begin="2400" end="2700" vehsPerHour="543.3264001903929" departLane="random" departSpeed="random" departPos="random_free" />
  <flow id="flow_134_peak_2400_S_left" type="civilianMix" route="r_S_to_W" begin="2400" end="2700" vehsPerHour="224.1576980890207" departLane="random" departSpeed="random" departPos="random_free" />
  <flow id="flow_135_peak_2400_S_right" type="civilianMix" route="r_S_to_E" begin="2400" end="2700" vehsPerHour="236.6741177792706" departLane="random" departSpeed="random" departPos="random_free" />
  <flow id="flow_136_peak_2400_S_uturn" type="civilianMix" route="r_S_to_S" begin="2400" end="2700" vehsPerHour="111.50992087677173" departLane="random" departSpeed="random" departPos="random_free" />
  <flow id="flow_137_peak_2400_E_straight" type="civilianMix" route="r_S_to_N" begin="2400" end="2700" vehsPerHour="574.6174494160176" departLane="random" departSpeed="random" departPos="random_free" />
  <flow id="flow_138_peak_2400_E_left" type="civilianMix" route="r_E_to_S" begin="2400" end="2700" vehsPerHour="227.5712670954525" departLane="random" departSpeed="random" departPos="random_free" />
  <flow id="flow_139_peak_2400_E_right" type="civilianMix" route="r_W_to_S" begin="2400" end="2700" vehsPerHour="236.6741177792706" departLane="random" departSpeed="random" departPos="random_free" />