<configuration>
  <input>
    <net-file value="net.net.xml"/>
    <route-files value="route_120p4k.rou.xml"/>
    <gui-settings-file value="gui-settings.xml"/>
  </input>
  <time>
    <begin value="0"/>
    <end value="7200"/>
  </time>
  <report>
    <verbose value="true"/>
  </report>
</configuration>





