<?xml version="1.0" encoding="UTF-8"?>

<!-- generated on 2025-11-22 03:13:35 by Eclipse SUMO netconvert Version 1.24.0
<netconvertConfiguration xmlns:xsi="http://www.w3.org/2001/XMLSchema-instance" xsi:noNamespaceSchemaLocation="http://sumo.dlr.de/xsd/netconvertConfiguration.xsd">

    <input>
        <node-files value="nodes.nod.xml"/>
        <edge-files value="edges.edg.xml"/>
    </input>

    <output>
        <output-file value="net.net.xml"/>
    </output>

    <junctions>
        <no-turnarounds value="true"/>
    </junctions>

</netconvertConfiguration>
-->

<net version="1.20" junctionCornerDetail="5" limitTurnSpeed="5.50" xmlns:xsi="http://www.w3.org/2001/XMLSchema-instance" xsi:noNamespaceSchemaLocation="http://sumo.dlr.de/xsd/net_file.xsd">

    <location netOffset="-200.00,0.00" convBoundary="0.00,0.00,200.00,400.00" origBoundary="200.00,0.00,400.00,400.00" projParameter="!"/>

    <edge id=":J1_0" function="internal">
        <lane id=":J1_0_0" index="0" speed="13.90" length="40.00" shape="-14.40,220.00 -14.40,180.00"/>
        <lane id=":J1_0_1" index="1" speed="13.90" length="40.00" shape="-11.20,220.00 -11.20,180.00"/>
        <lane id=":J1_0_2" index="2" speed="13.90" length="40.00" shape="-8.00,220.00 -8.00,180.00"/>
        <lane id=":J1_0_3" index="3" speed="13.90" length="40.00" shape="-4.80,220.00 -4.80,180.00"/>
        <lane id=":J1_0_4" index="4" speed="13.90" length="40.00" shape="-1.60,220.00 -1.60,180.00"/>
    </edge>
    <edge id=":J1_5" function="internal">
        <lane id=":J1_5_0" index="0" speed="13.15" length="6.44" shape="-1.60,220.00 -0.89,213.60"/>
        <lane id=":J1_5_1" index="1" speed="12.72" length="5.73" shape="-1.60,220.00 -0.89,214.32"/>
        <lane id=":J1_5_2" index="2" speed="12.28" length="5.01" shape="-1.60,220.00 -0.89,215.04"/>
    </edge>
    <edge id=":J1_21" function="internal">
        <lane id=":J1_21_0" index="0" speed="13.15" length="33.69" shape="-0.89,213.60 -0.25,207.75 3.80,199.00 10.55,193.75 20.00,192.00"/>
        <lane id=":J1_21_1" index="0" speed="12.72" length="31.73" shape="-0.89,214.32 -0.25,209.15 3.80,201.40 10.55,196.75 20.00,195.20"/>
        <lane id=":J1_21_2" index="0" speed="12.28" length="29.82" shape="-0.89,215.04 -0.25,210.55 3.80,203.80 10.55,199.75 20.00,198.40"/>
    </edge>
    <edge id=":J1_8" function="internal">
        <lane id=":J1_8_0" index="0" speed="6.51" length="9.03" shape="20.00,214.40 17.55,214.75 15.80,215.80 14.75,217.55 14.40,220.00"/>
        <lane id=":J1_8_1" index="1" speed="8.00" length="14.19" shape="20.00,211.20 16.15,211.75 13.40,213.40 11.75,216.15 11.20,220.00"/>
        <lane id=":J1_8_2" index="2" speed="9.26" length="19.35" shape="20.00,208.00 14.75,208.75 11.00,211.00 8.75,214.75 8.00,220.00"/>
    </edge>
    <edge id=":J1_11" function="internal">
        <lane id=":J1_11_0" index="0" speed="13.54" length="42.61" shape="20.00,204.80 7.75,203.25 -1.00,198.60 -6.25,190.85 -8.00,180.00"/>
        <lane id=":J1_11_1" index="1" speed="12.72" length="37.45" shape="20.00,201.60 9.15,200.25 1.40,196.20 -3.25,189.45 -4.80,180.00"/>
        <lane id=":J1_11_2" index="2" speed="12.28" length="34.84" shape="20.00,201.60 10.55,200.25 3.80,196.20 -0.25,189.45 -1.60,180.00"/>
    </edge>
    <edge id=":J1_14" function="internal">
        <lane id=":J1_14_0" index="0" speed="6.51" length="9.03" shape="14.40,180.00 14.75,182.45 15.80,184.20 17.55,185.25 20.00,185.60"/>
        <lane id=":J1_14_1" index="1" speed="7.33" length="11.73" shape="14.40,180.00 14.75,183.85 15.80,186.60 17.55,188.25 20.00,188.80"/>
    </edge>
    <edge id=":J1_16" function="internal">
        <lane id=":J1_16_0" index="0" speed="13.90" length="40.00" shape="14.40,180.00 14.40,220.00"/>
        <lane id=":J1_16_1" index="1" speed="13.90" length="40.00" shape="11.20,180.00 11.20,220.00"/>
        <lane id=":J1_16_2" index="2" speed="13.90" length="40.00" shape="8.00,180.00 8.00,220.00"/>
        <lane id=":J1_16_3" index="3" speed="13.90" length="40.00" shape="4.80,180.00 4.80,220.00"/>
        <lane id=":J1_16_4" index="4" speed="13.90" length="40.00" shape="1.60,180.00 1.60,220.00"/>
    </edge>

    <edge id="E_in" from="E" to="J1" priority="-1">
        <lane id="E_in_0" index="0" speed="13.90" length="180.00" shape="200.00,214.40 20.00,214.40"/>
        <lane id="E_in_1" index="1" speed="13.90" length="180.00" shape="200.00,211.20 20.00,211.20"/>
        <lane id="E_in_2" index="2" speed="13.90" length="180.00" shape="200.00,208.00 20.00,208.00"/>
        <lane id="E_in_3" index="3" speed="13.90" length="180.00" shape="200.00,204.80 20.00,204.80"/>
        <lane id="E_in_4" index="4" speed="13.90" length="180.00" shape="200.00,201.60 20.00,201.60"/>
    </edge>
    <edge id="E_out" from="J1" to="E" priority="-1">
        <lane id="E_out_0" index="0" speed="13.90" length="180.00" shape="20.00,185.60 200.00,185.60"/>
        <lane id="E_out_1" index="1" speed="13.90" length="180.00" shape="20.00,188.80 200.00,188.80"/>
        <lane id="E_out_2" index="2" speed="13.90" length="180.00" shape="20.00,192.00 200.00,192.00"/>
        <lane id="E_out_3" index="3" speed="13.90" length="180.00" shape="20.00,195.20 200.00,195.20"/>
        <lane id="E_out_4" index="4" speed="13.90" length="180.00" shape="20.00,198.40 200.00,198.40"/>
    </edge>
    <edge id="N_in" from="N" to="J1" priority="-1">
        <lane id="N_in_0" index="0" speed="13.90" length="180.00" shape="-14.40,400.00 -14.40,220.00"/>
        <lane id="N_in_1" index="1" speed="13.90" length="180.00" shape="-11.20,400.00 -11.20,220.00"/>
        <lane id="N_in_2" index="2" speed="13.90" length="180.00" shape="-8.00,400.00 -8.00,220.00"/>
        <lane id="N_in_3" index="3" speed="13.90" length="180.00" shape="-4.80,400.00 -4.80,220.00"/>
        <lane id="N_in_4" index="4" speed="13.90" length="180.00" shape="-1.60,400.00 -1.60,220.00"/>
    </edge>
    <edge id="N_out" from="J1" to="N" priority="-1">
        <lane id="N_out_0" index="0" speed="13.90" length="180.00" shape="14.40,220.00 14.40,400.00"/>
        <lane id="N_out_1" index="1" speed="13.90" length="180.00" shape="11.20,220.00 11.20,400.00"/>
        <lane id="N_out_2" index="2" speed="13.90" length="180.00" shape="8.00,220.00 8.00,400.00"/>
        <lane id="N_out_3" index="3" speed="13.90" length="180.00" shape="4.80,220.00 4.80,400.00"/>
        <lane id="N_out_4" index="4" speed="13.90" length="180.00" shape="1.60,220.00 1.60,400.00"/>
    </edge>
    <edge id="S_in" from="S" to="J1" priority="-1">
        <lane id="S_in_0" index="0" speed="13.90" length="180.00" shape="14.40,0.00 14.40,180.00"/>
        <lane id="S_in_1" index="1" speed="13.90" length="180.00" shape="11.20,0.00 11.20,180.00"/>
        <lane id="S_in_2" index="2" speed="13.90" length="180.00" shape="8.00,0.00 8.00,180.00"/>
        <lane id="S_in_3" index="3" speed="13.90" length="180.00" shape="4.80,0.00 4.80,180.00"/>
        <lane id="S_in_4" index="4" speed="13.90" length="180.00" shape="1.60,0.00 1.60,180.00"/>
    </edge>
    <edge id="S_out" from="J1" to="S" priority="-1">
        <lane id="S_out_0" index="0" speed="13.90" length="180.00" shape="-14.40,180.00 -14.40,0.00"/>
        <lane id="S_out_1" index="1" speed="13.90" length="180.00" shape="-11.20,180.00 -11.20,0.00"/>
        <lane id="S_out_2" index="2" speed="13.90" length="180.00" shape="-8.00,180.00 -8.00,0.00"/>
        <lane id="S_out_3" index="3" speed="13.90" length="180.00" shape="-4.80,180.00 -4.80,0.00"/>
        <lane id="S_out_4" index="4" speed="13.90" length="180.00" shape="-1.60,180.00 -1.60,0.00"/>
    </edge>

    <tlLogic id="J1" type="static" programID="0" offset="0">
        <phase duration="35" state="GGGGGgggrrrrrrGGGGGGG"/>
        <phase duration="3"  state="yyyyyyyyrrrrrryyyyyyy"/>
        <phase duration="25" state="rrrrrrrrGGGGGGGGrrrrr"/>
        <phase duration="3"  state="rrrrrrrryyyyyyyyrrrrr"/>
    </tlLogic>

    <junction id="E" type="dead_end" x="200.00" y="200.00" incLanes="E_out_0 E_out_1 E_out_2 E_out_3 E_out_4" intLanes="" shape="200.00,200.00 200.00,184.00 200.00,200.00"/>
    <junction id="J1" type="traffic_light" x="0.00" y="200.00" incLanes="N_in_0 N_in_1 N_in_2 N_in_3 N_in_4 E_in_0 E_in_1 E_in_2 E_in_3 E_in_4 S_in_0 S_in_1 S_in_2 S_in_3 S_in_4" intLanes=":J1_0_0 :J1_0_1 :J1_0_2 :J1_0_3 :J1_0_4 :J1_21_0 :J1_21_1 :J1_21_2 :J1_8_0 :J1_8_1 :J1_8_2 :J1_11_0 :J1_11_1 :J1_11_2 :J1_14_0 :J1_14_1 :J1_16_0 :J1_16_1 :J1_16_2 :J1_16_3 :J1_16_4" shape="-16.00,220.00 16.00,220.00 16.44,217.78 17.00,217.00 17.78,216.44 18.78,216.11 20.00,216.00 20.00,184.00 17.78,183.56 17.00,183.00 16.44,182.22 16.11,181.22 16.00,180.00 -16.00,180.00">
        <request index="0"  response="000000000000000000000" foes="000000011100000000000" cont="0"/>
        <request index="1"  response="000000000000000000000" foes="000000011100000000000" cont="0"/>
        <request index="2"  response="000000000000000000000" foes="000000011100000000000" cont="0"/>
        <request index="3"  response="000000000000000000000" foes="000000011100000000000" cont="0"/>
        <request index="4"  response="000000000000000000000" foes="000000011100000000000" cont="0"/>
        <request index="5"  response="111110000000000000000" foes="111110011100000000000" cont="1"/>
        <request index="6"  response="111110000000000000000" foes="111110011100000000000" cont="1"/>
        <request index="7"  response="111110000000000000000" foes="111110011100000000000" cont="1"/>
        <request index="8"  response="111110000000000000000" foes="111110000000000000000" cont="0"/>
        <request index="9"  response="111110000000000000000" foes="111110000000000000000" cont="0"/>
        <request index="10" response="111110000000000000000" foes="111110000000000000000" cont="0"/>
        <request index="11" response="111110000000011111111" foes="111110000000011111111" cont="0"/>
        <request index="12" response="111110000000011111111" foes="111110000000011111111" cont="0"/>
        <request index="13" response="111110000000011111111" foes="111110000000011111111" cont="0"/>
        <request index="14" response="000000000000000000000" foes="000000000000000000000" cont="0"/>
        <request index="15" response="000000000000000000000" foes="000000000000000000000" cont="0"/>
        <request index="16" response="000000000000000000000" foes="000000011111111100000" cont="0"/>
        <request index="17" response="000000000000000000000" foes="000000011111111100000" cont="0"/>
        <request index="18" response="000000000000000000000" foes="000000011111111100000" cont="0"/>
        <request index="19" response="000000000000000000000" foes="000000011111111100000" cont="0"/>
        <request index="20" response="000000000000000000000" foes="000000011111111100000" cont="0"/>
    </junction>
    <junction id="N" type="dead_end" x="0.00" y="400.00" incLanes="N_out_0 N_out_1 N_out_2 N_out_3 N_out_4" intLanes="" shape="0.00,400.00 16.00,400.00 0.00,400.00"/>
    <junction id="S" type="dead_end" x="0.00" y="0.00" incLanes="S_out_0 S_out_1 S_out_2 S_out_3 S_out_4" intLanes="" shape="0.00,0.00 -16.00,0.00 0.00,0.00"/>

    <junction id=":J1_21_0" type="internal" x="-0.89" y="213.60" incLanes=":J1_5_0 S_in_0 S_in_1 S_in_2 S_in_3 S_in_4" intLanes=":J1_11_0 :J1_11_1 :J1_11_2 :J1_16_0 :J1_16_1 :J1_16_2 :J1_16_3 :J1_16_4"/>
    <junction id=":J1_21_1" type="internal" x="-0.89" y="214.32" incLanes=":J1_5_1 S_in_0 S_in_1 S_in_2 S_in_3 S_in_4" intLanes=":J1_11_0 :J1_11_1 :J1_11_2 :J1_16_0 :J1_16_1 :J1_16_2 :J1_16_3 :J1_16_4"/>
    <junction id=":J1_21_2" type="internal" x="-0.89" y="215.04" incLanes=":J1_5_2 S_in_0 S_in_1 S_in_2 S_in_3 S_in_4" intLanes=":J1_11_0 :J1_11_1 :J1_11_2 :J1_16_0 :J1_16_1 :J1_16_2 :J1_16_3 :J1_16_4"/>

    <connection from="E_in" to="N_out" fromLane="0" toLane="0" via=":J1_8_0" tl="J1" linkIndex="8" dir="r" state="o"/>
    <connection from="E_in" to="N_out" fromLane="1" toLane="1" via=":J1_8_1" tl="J1" linkIndex="9" dir="r" state="o"/>
    <connection from="E_in" to="N_out" fromLane="2" toLane="2" via=":J1_8_2" tl="J1" linkIndex="10" dir="r" state="o"/>
    <connection from="E_in" to="S_out" fromLane="3" toLane="2" via=":J1_11_0" tl="J1" linkIndex="11" dir="l" state="o"/>
    <connection from="E_in" to="S_out" fromLane="4" toLane="3" via=":J1_11_1" tl="J1" linkIndex="12" dir="l" state="o"/>
    <connection from="E_in" to="S_out" fromLane="4" toLane="4" via=":J1_11_2" tl="J1" linkIndex="13" dir="l" state="o"/>
    <connection from="N_in" to="S_out" fromLane="0" toLane="0" via=":J1_0_0" tl="J1" linkIndex="0" dir="s" state="O"/>
    <connection from="N_in" to="S_out" fromLane="1" toLane="1" via=":J1_0_1" tl="J1" linkIndex="1" dir="s" state="O"/>
    <connection from="N_in" to="S_out" fromLane="2" toLane="2" via=":J1_0_2" tl="J1" linkIndex="2" dir="s" state="O"/>
    <connection from="N_in" to="S_out" fromLane="3" toLane="3" via=":J1_0_3" tl="J1" linkIndex="3" dir="s" state="O"/>
    <connection from="N_in" to="S_out" fromLane="4" toLane="4" via=":J1_0_4" tl="J1" linkIndex="4" dir="s" state="O"/>
    <connection from="N_in" to="E_out" fromLane="4" toLane="2" via=":J1_5_0" tl="J1" linkIndex="5" dir="l" state="o"/>
    <connection from="N_in" to="E_out" fromLane="4" toLane="3" via=":J1_5_1" tl="J1" linkIndex="6" dir="l" state="o"/>
    <connection from="N_in" to="E_out" fromLane="4" toLane="4" via=":J1_5_2" tl="J1" linkIndex="7" dir="l" state="o"/>
    <connection from="S_in" to="E_out" fromLane="0" toLane="0" via=":J1_14_0" tl="J1" linkIndex="14" dir="r" state="O"/>
    <connection from="S_in" to="E_out" fromLane="0" toLane="1" via=":J1_14_1" tl="J1" linkIndex="15" dir="r" state="O"/>
    <connection from="S_in" to="N_out" fromLane="0" toLane="0" via=":J1_16_0" tl="J1" linkIndex="16" dir="s" state="O"/>
    <connection from="S_in" to="N_out" fromLane="1" toLane="1" via=":J1_16_1" tl="J1" linkIndex="17" dir="s" state="O"/>
    <connection from="S_in" to="N_out" fromLane="2" toLane="2" via=":J1_16_2" tl="J1" linkIndex="18" dir="s" state="O"/>
    <connection from="S_in" to="N_out" fromLane="3" toLane="3" via=":J1_16_3" tl="J1" linkIndex="19" dir="s" state="O"/>
    <connection from="S_in" to="N_out" fromLane="4" toLane="4" via=":J1_16_4" tl="J1" linkIndex="20" dir="s" state="O"/>

    <connection from=":J1_0" to="S_out" fromLane="0" toLane="0" dir="s" state="M"/>
    <connection from=":J1_0" to="S_out" fromLane="1" toLane="1" dir="s" state="M"/>
    <connection from=":J1_0" to="S_out" fromLane="2" toLane="2" dir="s" state="M"/>
    <connection from=":J1_0" to="S_out" fromLane="3" toLane="3" dir="s" state="M"/>
    <connection from=":J1_0" to="S_out" fromLane="4" toLane="4" dir="s" state="M"/>
    <connection from=":J1_5" to="E_out" fromLane="0" toLane="2" via=":J1_21_0" dir="l" state="m"/>
    <connection from=":J1_21" to="E_out" fromLane="0" toLane="2" dir="l" state="M"/>
    <connection from=":J1_5" to="E_out" fromLane="1" toLane="3" via=":J1_21_1" dir="l" state="m"/>
    <connection from=":J1_21" to="E_out" fromLane="1" toLane="3" dir="l" state="M"/>
    <connection from=":J1_5" to="E_out" fromLane="2" toLane="4" via=":J1_21_2" dir="l" state="m"/>
    <connection from=":J1_21" to="E_out" fromLane="2" toLane="4" dir="l" state="M"/>
    <connection from=":J1_8" to="N_out" fromLane="0" toLane="0" dir="r" state="M"/>
    <connection from=":J1_8" to="N_out" fromLane="1" toLane="1" dir="r" state="M"/>
    <connection from=":J1_8" to="N_out" fromLane="2" toLane="2" dir="r" state="M"/>
    <connection from=":J1_11" to="S_out" fromLane="0" toLane="2" dir="l" state="M"/>
    <connection from=":J1_11" to="S_out" fromLane="1" toLane="3" dir="l" state="M"/>
    <connection from=":J1_11" to="S_out" fromLane="2" toLane="4" dir="l" state="M"/>
    <connection from=":J1_14" to="E_out" fromLane="0" toLane="0" dir="r" state="M"/>
    <connection from=":J1_14" to="E_out" fromLane="1" toLane="1" dir="r" state="M"/>
    <connection from=":J1_16" to="N_out" fromLane="0" toLane="0" dir="s" state="M"/>
    <connection from=":J1_16" to="N_out" fromLane="1" toLane="1" dir="s" state="M"/>
    <connection from=":J1_16" to="N_out" fromLane="2" toLane="2" dir="s" state="M"/>
    <connection from=":J1_16" to="N_out" fromLane="3" toLane="3" dir="s" state="M"/>
    <connection from=":J1_16" to="N_out" fromLane="4" toLane="4" dir="s" state="M"/>

</net>
